data_image0
_chemical_formula_structural       O16Si8
_chemical_formula_sum              "O16 Si8"
_cell_length_a       9.28897
_cell_length_b       5.2413
_cell_length_c       8.94478
_cell_angle_alpha    89.9982
_cell_angle_beta     90.0002
_cell_angle_gamma    89.9991

_space_group_name_H-M_alt    "P 1"
_space_group_IT_number       1

loop_
  _space_group_symop_operation_xyz
  'x, y, z'

loop_
  _atom_site_type_symbol
  _atom_site_label
  _atom_site_symmetry_multiplicity
  _atom_site_fract_x
  _atom_site_fract_y
  _atom_site_fract_z
  _atom_site_occupancy
  O   O1        1.0  0.50000  0.25005  0.38091  1.0000
  O   O2        1.0  1.00000  0.75005  0.88091  1.0000
  O   O3        1.0  0.50000  0.74995  0.61909  1.0000
  O   O4        1.0  0.00000  0.24995  0.11909  1.0000
  O   O5        1.0  0.28297  0.00001  0.50001  1.0000
  O   O6        1.0  0.78297  0.50001  0.00001  1.0000
  O   O7        1.0  0.71703  0.99999  0.49999  1.0000
  O   O8        1.0  0.21703  0.49999  0.99999  1.0000
  O   O9        1.0  0.28294  0.50001  0.50000  1.0000
  O   O10       1.0  0.78294  0.00001  1.00000  1.0000
  O   O11       1.0  0.71706  0.49999  0.50000  1.0000
  O   O12       1.0  0.21706  0.99999  0.00000  1.0000
  O   O13       1.0  0.25000  0.25000  0.25000  1.0000
  O   O14       1.0  0.75000  0.75000  0.75000  1.0000
  O   O15       1.0  0.75000  0.25000  0.25000  1.0000
  O   O16       1.0  0.25000  0.75000  0.75000  1.0000
  Si  Si1       1.0  0.32913  0.25002  0.40804  1.0000
  Si  Si2       1.0  0.82913  0.75002  0.90804  1.0000
  Si  Si3       1.0  0.67087  0.25001  0.40803  1.0000
  Si  Si4       1.0  0.17087  0.75001  0.90803  1.0000
  Si  Si5       1.0  0.67087  0.74998  0.59196  1.0000
  Si  Si6       1.0  0.17087  0.24998  0.09197  1.0000
  Si  Si7       1.0  0.32913  0.74999  0.59197  1.0000
  Si  Si8       1.0  0.82913  0.24999  0.09197  1.0000
