data_image0
_chemical_formula_structural       O64Si32
_chemical_formula_sum              "O64 Si32"
_cell_length_a       13.7397
_cell_length_b       13.2875
_cell_length_c       10.0558
_cell_angle_alpha    90.0004
_cell_angle_beta     105.989
_cell_angle_gamma    90.0008

_space_group_name_H-M_alt    "P 1"
_space_group_IT_number       1

loop_
  _space_group_symop_operation_xyz
  'x, y, z'

loop_
  _atom_site_type_symbol
  _atom_site_label
  _atom_site_symmetry_multiplicity
  _atom_site_fract_x
  _atom_site_fract_y
  _atom_site_fract_z
  _atom_site_occupancy
  O   O1        1.0  0.81841  0.84822  0.32654  1.0000
  O   O2        1.0  0.31841  0.34822  0.32654  1.0000
  O   O3        1.0  0.18159  0.84824  0.67346  1.0000
  O   O4        1.0  0.68158  0.34824  0.67346  1.0000
  O   O5        1.0  0.18159  0.15178  0.67346  1.0000
  O   O6        1.0  0.68159  0.65178  0.67346  1.0000
  O   O7        1.0  0.81842  0.15176  0.32653  1.0000
  O   O8        1.0  0.31841  0.65176  0.32654  1.0000
  O   O9        1.0  0.74883  0.68734  0.17705  1.0000
  O   O10       1.0  0.24883  0.18734  0.17705  1.0000
  O   O11       1.0  0.25115  0.68735  0.82293  1.0000
  O   O12       1.0  0.75115  0.18735  0.82293  1.0000
  O   O13       1.0  0.25117  0.31266  0.82295  1.0000
  O   O14       1.0  0.75117  0.81266  0.82295  1.0000
  O   O15       1.0  0.74885  0.31265  0.17707  1.0000
  O   O16       1.0  0.24885  0.81265  0.17707  1.0000
  O   O17       1.0  0.62052  0.81303  0.23300  1.0000
  O   O18       1.0  0.12052  0.31303  0.23300  1.0000
  O   O19       1.0  0.37947  0.81303  0.76700  1.0000
  O   O20       1.0  0.87947  0.31303  0.76700  1.0000
  O   O21       1.0  0.37948  0.18697  0.76700  1.0000
  O   O22       1.0  0.87948  0.68697  0.76700  1.0000
  O   O23       1.0  0.62053  0.18697  0.23300  1.0000
  O   O24       1.0  0.12053  0.68697  0.23300  1.0000
  O   O25       1.0  0.72791  0.86805  0.06388  1.0000
  O   O26       1.0  0.22791  0.36805  0.06388  1.0000
  O   O27       1.0  0.27208  0.86805  0.93613  1.0000
  O   O28       1.0  0.77208  0.36805  0.93613  1.0000
  O   O29       1.0  0.27209  0.13195  0.93612  1.0000
  O   O30       1.0  0.77209  0.63195  0.93612  1.0000
  O   O31       1.0  0.72792  0.13195  0.06387  1.0000
  O   O32       1.0  0.22792  0.63195  0.06387  1.0000
  O   O33       1.0  0.42946  0.86407  0.15703  1.0000
  O   O34       1.0  0.92946  0.36407  0.15703  1.0000
  O   O35       1.0  0.57054  0.86406  0.84299  1.0000
  O   O36       1.0  0.07054  0.36406  0.84299  1.0000
  O   O37       1.0  0.57054  0.13593  0.84297  1.0000
  O   O38       1.0  0.07054  0.63593  0.84297  1.0000
  O   O39       1.0  0.42946  0.13594  0.15701  1.0000
  O   O40       1.0  0.92946  0.63594  0.15701  1.0000
  O   O41       1.0  0.28732  0.00000  0.13434  1.0000
  O   O42       1.0  0.78732  0.50000  0.13434  1.0000
  O   O43       1.0  0.71268  1.00000  0.86566  1.0000
  O   O44       1.0  0.21268  0.50000  0.86566  1.0000
  O   O45       1.0  0.50000  0.35444  0.50000  1.0000
  O   O46       1.0  1.00000  0.85444  0.50000  1.0000
  O   O47       1.0  0.50000  0.64556  0.50000  1.0000
  O   O48       1.0  0.00000  0.14556  0.50000  1.0000
  O   O49       1.0  0.56033  0.50001  0.68182  1.0000
  O   O50       1.0  0.06033  0.00001  0.68182  1.0000
  O   O51       1.0  0.43967  0.49999  0.31818  1.0000
  O   O52       1.0  0.93967  0.99999  0.31818  1.0000
  O   O53       1.0  0.51908  0.32239  0.76249  1.0000
  O   O54       1.0  0.01909  0.82239  0.76249  1.0000
  O   O55       1.0  0.48092  0.32239  0.23751  1.0000
  O   O56       1.0  0.98092  0.82239  0.23751  1.0000
  O   O57       1.0  0.48092  0.67761  0.23751  1.0000
  O   O58       1.0  0.98092  0.17761  0.23751  1.0000
  O   O59       1.0  0.51908  0.67761  0.76249  1.0000
  O   O60       1.0  0.01908  0.17761  0.76249  1.0000
  O   O61       1.0  0.50002  0.25898  1.00000  1.0000
  O   O62       1.0  0.00002  0.75898  1.00000  1.0000
  O   O63       1.0  0.49998  0.74102  1.00000  1.0000
  O   O64       1.0  0.99998  0.24102  1.00000  1.0000
  Si  Si1       1.0  0.50782  0.22648  0.15755  1.0000
  Si  Si2       1.0  0.00782  0.72648  0.15755  1.0000
  Si  Si3       1.0  0.49219  0.22648  0.84244  1.0000
  Si  Si4       1.0  0.99220  0.72648  0.84244  1.0000
  Si  Si5       1.0  0.49218  0.77352  0.84245  1.0000
  Si  Si6       1.0  0.99218  0.27352  0.84245  1.0000
  Si  Si7       1.0  0.50781  0.77352  0.15756  1.0000
  Si  Si8       1.0  0.00780  0.27352  0.15756  1.0000
  Si  Si9       1.0  0.72870  0.80469  0.20125  1.0000
  Si  Si10      1.0  0.22870  0.30469  0.20125  1.0000
  Si  Si11      1.0  0.27129  0.80470  0.79875  1.0000
  Si  Si12      1.0  0.77129  0.30470  0.79875  1.0000
  Si  Si13      1.0  0.27130  0.19531  0.79875  1.0000
  Si  Si14      1.0  0.77130  0.69531  0.79875  1.0000
  Si  Si15      1.0  0.72871  0.19530  0.20125  1.0000
  Si  Si16      1.0  0.22871  0.69530  0.20125  1.0000
  Si  Si17      1.0  0.30964  0.88611  0.10102  1.0000
  Si  Si18      1.0  0.80964  0.38611  0.10102  1.0000
  Si  Si19      1.0  0.69036  0.88610  0.89899  1.0000
  Si  Si20      1.0  0.19036  0.38610  0.89899  1.0000
  Si  Si21      1.0  0.69036  0.11389  0.89898  1.0000
  Si  Si22      1.0  0.19036  0.61389  0.89898  1.0000
  Si  Si23      1.0  0.30964  0.11390  0.10101  1.0000
  Si  Si24      1.0  0.80964  0.61390  0.10101  1.0000
  Si  Si25      1.0  0.56526  0.38152  0.65412  1.0000
  Si  Si26      1.0  0.06526  0.88152  0.65412  1.0000
  Si  Si27      1.0  0.43474  0.38151  0.34587  1.0000
  Si  Si28      1.0  0.93474  0.88151  0.34587  1.0000
  Si  Si29      1.0  0.43474  0.61848  0.34588  1.0000
  Si  Si30      1.0  0.93474  0.11848  0.34588  1.0000
  Si  Si31      1.0  0.56526  0.61849  0.65413  1.0000
  Si  Si32      1.0  0.06526  0.11849  0.65413  1.0000
