data_image0
_chemical_formula_structural       O48Si24
_chemical_formula_sum              "O48 Si24"
_cell_length_a       13.6279
_cell_length_b       13.628
_cell_length_c       7.64977
_cell_angle_alpha    90.0001
_cell_angle_beta     89.9999
_cell_angle_gamma    89.9998

_space_group_name_H-M_alt    "P 1"
_space_group_IT_number       1

loop_
  _space_group_symop_operation_xyz
  'x, y, z'

loop_
  _atom_site_type_symbol
  _atom_site_label
  _atom_site_symmetry_multiplicity
  _atom_site_fract_x
  _atom_site_fract_y
  _atom_site_fract_z
  _atom_site_occupancy
  O   O1        1.0  0.49701  0.75000  0.86866  1.0000
  O   O2        1.0  0.75000  0.49702  0.86867  1.0000
  O   O3        1.0  0.00299  0.75000  0.86867  1.0000
  O   O4        1.0  0.75000  0.00299  0.86867  1.0000
  O   O5        1.0  0.50299  0.25000  0.13134  1.0000
  O   O6        1.0  0.25000  0.50298  0.13133  1.0000
  O   O7        1.0  0.99701  0.25000  0.13133  1.0000
  O   O8        1.0  0.25000  0.99701  0.13133  1.0000
  O   O9        1.0  0.43170  0.89035  0.66262  1.0000
  O   O10       1.0  0.60965  0.43170  0.66262  1.0000
  O   O11       1.0  0.06830  0.60965  0.66262  1.0000
  O   O12       1.0  0.89035  0.06830  0.66262  1.0000
  O   O13       1.0  0.06830  0.89035  0.66263  1.0000
  O   O14       1.0  0.89035  0.43170  0.66263  1.0000
  O   O15       1.0  0.43170  0.60965  0.66263  1.0000
  O   O16       1.0  0.60965  0.06831  0.66263  1.0000
  O   O17       1.0  0.56830  0.10965  0.33738  1.0000
  O   O18       1.0  0.39035  0.56830  0.33738  1.0000
  O   O19       1.0  0.93170  0.39035  0.33738  1.0000
  O   O20       1.0  0.10965  0.93170  0.33738  1.0000
  O   O21       1.0  0.93170  0.10965  0.33737  1.0000
  O   O22       1.0  0.10965  0.56830  0.33737  1.0000
  O   O23       1.0  0.56830  0.39035  0.33737  1.0000
  O   O24       1.0  0.39035  0.93169  0.33737  1.0000
  O   O25       1.0  0.39680  0.89680  0.00000  1.0000
  O   O26       1.0  0.60321  0.39679  0.99999  1.0000
  O   O27       1.0  0.10321  0.60320  0.00000  1.0000
  O   O28       1.0  0.89680  0.10320  1.00000  1.0000
  O   O29       1.0  0.10320  0.89680  0.00000  1.0000
  O   O30       1.0  0.89679  0.39680  1.00000  1.0000
  O   O31       1.0  0.39679  0.60321  0.00001  1.0000
  O   O32       1.0  0.60320  0.10320  1.00000  1.0000
  O   O33       1.0  0.57626  0.92374  0.87971  1.0000
  O   O34       1.0  0.57626  0.57626  0.87972  1.0000
  O   O35       1.0  0.92374  0.57626  0.87972  1.0000
  O   O36       1.0  0.92374  0.92374  0.87972  1.0000
  O   O37       1.0  0.42374  0.07626  0.12029  1.0000
  O   O38       1.0  0.42374  0.42374  0.12028  1.0000
  O   O39       1.0  0.07626  0.42374  0.12028  1.0000
  O   O40       1.0  0.07626  0.07626  0.12028  1.0000
  O   O41       1.0  0.12035  0.75000  0.44508  1.0000
  O   O42       1.0  0.75000  0.12035  0.44509  1.0000
  O   O43       1.0  0.37965  0.75000  0.44509  1.0000
  O   O44       1.0  0.75000  0.37965  0.44508  1.0000
  O   O45       1.0  0.87965  0.25000  0.55492  1.0000
  O   O46       1.0  0.25000  0.87965  0.55491  1.0000
  O   O47       1.0  0.62035  0.25000  0.55491  1.0000
  O   O48       1.0  0.25000  0.62035  0.55492  1.0000
  Si  Si1       1.0  0.47513  0.86511  0.85287  1.0000
  Si  Si2       1.0  0.63489  0.47513  0.85287  1.0000
  Si  Si3       1.0  0.02487  0.63489  0.85287  1.0000
  Si  Si4       1.0  0.86511  0.02487  0.85287  1.0000
  Si  Si5       1.0  0.02487  0.86511  0.85287  1.0000
  Si  Si6       1.0  0.86511  0.47513  0.85287  1.0000
  Si  Si7       1.0  0.47513  0.63489  0.85288  1.0000
  Si  Si8       1.0  0.63489  0.02487  0.85287  1.0000
  Si  Si9       1.0  0.52487  0.13489  0.14713  1.0000
  Si  Si10      1.0  0.36511  0.52487  0.14713  1.0000
  Si  Si11      1.0  0.97513  0.36511  0.14713  1.0000
  Si  Si12      1.0  0.13489  0.97513  0.14713  1.0000
  Si  Si13      1.0  0.97513  0.13489  0.14713  1.0000
  Si  Si14      1.0  0.13489  0.52487  0.14713  1.0000
  Si  Si15      1.0  0.52487  0.36511  0.14712  1.0000
  Si  Si16      1.0  0.36511  0.97513  0.14713  1.0000
  Si  Si17      1.0  0.13698  0.86302  0.50000  1.0000
  Si  Si18      1.0  0.63698  0.13698  0.50000  1.0000
  Si  Si19      1.0  0.36302  0.63698  0.50000  1.0000
  Si  Si20      1.0  0.86302  0.36302  0.50000  1.0000
  Si  Si21      1.0  0.36302  0.86302  0.50000  1.0000
  Si  Si22      1.0  0.86302  0.13698  0.50000  1.0000
  Si  Si23      1.0  0.13698  0.63698  0.50000  1.0000
  Si  Si24      1.0  0.63698  0.36302  0.50000  1.0000
