data_image0
_chemical_formula_structural       O32Si16
_chemical_formula_sum              "O32 Si16"
_cell_length_a       6.77024
_cell_length_b       17.0477
_cell_length_c       7.69549
_cell_angle_alpha    89.9999
_cell_angle_beta     95.4173
_cell_angle_gamma    89.9998

_space_group_name_H-M_alt    "P 1"
_space_group_IT_number       1

loop_
  _space_group_symop_operation_xyz
  'x, y, z'

loop_
  _atom_site_type_symbol
  _atom_site_label
  _atom_site_symmetry_multiplicity
  _atom_site_fract_x
  _atom_site_fract_y
  _atom_site_fract_z
  _atom_site_occupancy
  O   O1        1.0  0.38476  0.10637  0.02166  1.0000
  O   O2        1.0  0.61524  0.60637  0.97834  1.0000
  O   O3        1.0  0.61524  0.89363  0.97834  1.0000
  O   O4        1.0  0.38476  0.39363  0.02166  1.0000
  O   O5        1.0  0.08944  0.08531  0.78051  1.0000
  O   O6        1.0  0.91056  0.58531  0.21949  1.0000
  O   O7        1.0  0.91056  0.91469  0.21949  1.0000
  O   O8        1.0  0.08944  0.41469  0.78051  1.0000
  O   O9        1.0  0.40781  0.99695  0.78187  1.0000
  O   O10       1.0  0.59219  0.49695  0.21813  1.0000
  O   O11       1.0  0.59219  0.00305  0.21813  1.0000
  O   O12       1.0  0.40781  0.50305  0.78187  1.0000
  O   O13       1.0  0.42447  0.14653  0.69747  1.0000
  O   O14       1.0  0.57553  0.64653  0.30252  1.0000
  O   O15       1.0  0.57553  0.85347  0.30253  1.0000
  O   O16       1.0  0.42447  0.35347  0.69748  1.0000
  O   O17       1.0  0.20611  0.01440  0.23036  1.0000
  O   O18       1.0  0.79389  0.51440  0.76964  1.0000
  O   O19       1.0  0.79389  0.98560  0.76964  1.0000
  O   O20       1.0  0.20611  0.48560  0.23036  1.0000
  O   O21       1.0  0.44169  0.12682  0.36003  1.0000
  O   O22       1.0  0.55831  0.62681  0.63997  1.0000
  O   O23       1.0  0.55831  0.87318  0.63997  1.0000
  O   O24       1.0  0.44169  0.37319  0.36003  1.0000
  O   O25       1.0  0.76601  0.11351  0.57631  1.0000
  O   O26       1.0  0.23399  0.61351  0.42369  1.0000
  O   O27       1.0  0.23399  0.88649  0.42369  1.0000
  O   O28       1.0  0.76601  0.38649  0.57631  1.0000
  O   O29       1.0  0.60318  0.25000  0.51587  1.0000
  O   O30       1.0  0.39682  0.75000  0.48413  1.0000
  O   O31       1.0  0.00000  0.00000  0.50000  1.0000
  O   O32       1.0  0.00000  0.50000  0.50000  1.0000
  Si  Si1       1.0  0.32668  0.08410  0.82005  1.0000
  Si  Si2       1.0  0.67332  0.58410  0.17995  1.0000
  Si  Si3       1.0  0.67332  0.91590  0.17995  1.0000
  Si  Si4       1.0  0.32668  0.41590  0.82005  1.0000
  Si  Si5       1.0  0.40611  0.06287  0.20795  1.0000
  Si  Si6       1.0  0.59389  0.56287  0.79204  1.0000
  Si  Si7       1.0  0.59389  0.93713  0.79205  1.0000
  Si  Si8       1.0  0.40611  0.43713  0.20796  1.0000
  Si  Si9       1.0  0.55881  0.15890  0.53758  1.0000
  Si  Si10      1.0  0.44119  0.65889  0.46242  1.0000
  Si  Si11      1.0  0.44119  0.84110  0.46242  1.0000
  Si  Si12      1.0  0.55881  0.34111  0.53758  1.0000
  Si  Si13      1.0  0.91222  0.04607  0.65666  1.0000
  Si  Si14      1.0  0.08778  0.54607  0.34334  1.0000
  Si  Si15      1.0  0.08778  0.95393  0.34334  1.0000
  Si  Si16      1.0  0.91222  0.45393  0.65666  1.0000
