data_image0
_chemical_formula_structural       O28Si14
_chemical_formula_sum              "O28 Si14"
_cell_length_a       8.72358
_cell_length_b       9.53366
_cell_length_c       10.5224
_cell_angle_alpha    103.354
_cell_angle_beta     99.4589
_cell_angle_gamma    101

_space_group_name_H-M_alt    "P 1"
_space_group_IT_number       1

loop_
  _space_group_symop_operation_xyz
  'x, y, z'

loop_
  _atom_site_type_symbol
  _atom_site_label
  _atom_site_symmetry_multiplicity
  _atom_site_fract_x
  _atom_site_fract_y
  _atom_site_fract_z
  _atom_site_occupancy
  O   O1        1.0  0.50253  0.15577  0.23461  1.0000
  O   O2        1.0  0.49746  0.84422  0.76539  1.0000
  O   O3        1.0  0.68782  0.44973  0.92972  1.0000
  O   O4        1.0  0.31220  0.55026  0.07028  1.0000
  O   O5        1.0  0.42135  0.93291  0.33135  1.0000
  O   O6        1.0  0.57863  0.06708  0.66864  1.0000
  O   O7        1.0  0.38957  0.32064  0.80861  1.0000
  O   O8        1.0  0.61044  0.67936  0.19139  1.0000
  O   O9        1.0  0.37845  0.18906  0.00333  1.0000
  O   O10       1.0  0.62153  0.81093  0.99667  1.0000
  O   O11       1.0  0.13523  0.76599  0.30130  1.0000
  O   O12       1.0  0.86475  0.23400  0.69873  1.0000
  O   O13       1.0  0.47788  0.41884  0.21687  1.0000
  O   O14       1.0  0.52213  0.58116  0.78313  1.0000
  O   O15       1.0  0.68719  0.29447  0.10726  1.0000
  O   O16       1.0  0.31279  0.70552  0.89273  1.0000
  O   O17       1.0  0.11453  0.18726  0.84200  1.0000
  O   O18       1.0  0.88547  0.81276  0.15800  1.0000
  O   O19       1.0  0.66702  0.15416  0.46592  1.0000
  O   O20       1.0  0.33298  0.84583  0.53408  1.0000
  O   O21       1.0  0.69030  0.97151  0.24613  1.0000
  O   O22       1.0  0.30969  0.02849  0.75386  1.0000
  O   O23       1.0  0.38900  0.65429  0.33353  1.0000
  O   O24       1.0  0.61100  0.34571  0.66647  1.0000
  O   O25       1.0  0.91118  0.53776  0.14818  1.0000
  O   O26       1.0  0.08878  0.46226  0.85185  1.0000
  O   O27       1.0  0.90447  0.29527  0.96169  1.0000
  O   O28       1.0  0.09557  0.70475  0.03835  1.0000
  Si  Si1       1.0  0.51128  0.26452  0.14019  1.0000
  Si  Si2       1.0  0.48871  0.73547  0.85980  1.0000
  Si  Si3       1.0  0.55231  0.42439  0.79628  1.0000
  Si  Si4       1.0  0.44771  0.57561  0.20372  1.0000
  Si  Si5       1.0  0.57108  0.05372  0.31976  1.0000
  Si  Si6       1.0  0.42890  0.94627  0.68023  1.0000
  Si  Si7       1.0  0.31967  0.80006  0.37578  1.0000
  Si  Si8       1.0  0.68032  0.19993  0.62422  1.0000
  Si  Si9       1.0  0.29830  0.18081  0.85188  1.0000
  Si  Si10      1.0  0.70170  0.81919  0.14811  1.0000
  Si  Si11      1.0  0.00618  0.70554  0.16177  1.0000
  Si  Si12      1.0  0.99381  0.29447  0.83826  1.0000
  Si  Si13      1.0  0.79825  0.39321  0.03732  1.0000
  Si  Si14      1.0  0.20174  0.60680  0.96270  1.0000
