data_image0
_chemical_formula_structural       O72Si36
_chemical_formula_sum              "O72 Si36"
_cell_length_a       17.4437
_cell_length_b       17.5024
_cell_length_c       7.37108
_cell_angle_alpha    90
_cell_angle_beta     116.401
_cell_angle_gamma    90.0001

_space_group_name_H-M_alt    "P 1"
_space_group_IT_number       1

loop_
  _space_group_symop_operation_xyz
  'x, y, z'

loop_
  _atom_site_type_symbol
  _atom_site_label
  _atom_site_symmetry_multiplicity
  _atom_site_fract_x
  _atom_site_fract_y
  _atom_site_fract_z
  _atom_site_occupancy
  O   O1        1.0  0.08358  0.16655  0.07432  1.0000
  O   O2        1.0  0.58358  0.66655  0.07432  1.0000
  O   O3        1.0  0.91642  0.16655  0.92568  1.0000
  O   O4        1.0  0.41642  0.66655  0.92568  1.0000
  O   O5        1.0  0.91642  0.83345  0.92568  1.0000
  O   O6        1.0  0.41642  0.33345  0.92568  1.0000
  O   O7        1.0  0.08358  0.83345  0.07432  1.0000
  O   O8        1.0  0.58358  0.33345  0.07432  1.0000
  O   O9        1.0  0.23318  0.10044  0.25950  1.0000
  O   O10       1.0  0.73318  0.60044  0.25950  1.0000
  O   O11       1.0  0.76682  0.10044  0.74050  1.0000
  O   O12       1.0  0.26682  0.60044  0.74050  1.0000
  O   O13       1.0  0.76682  0.89956  0.74050  1.0000
  O   O14       1.0  0.26682  0.39956  0.74050  1.0000
  O   O15       1.0  0.23318  0.89956  0.25950  1.0000
  O   O16       1.0  0.73318  0.39956  0.25950  1.0000
  O   O17       1.0  0.18232  0.15377  0.89077  1.0000
  O   O18       1.0  0.68232  0.65377  0.89077  1.0000
  O   O19       1.0  0.81768  0.15377  0.10923  1.0000
  O   O20       1.0  0.31768  0.65377  0.10923  1.0000
  O   O21       1.0  0.81768  0.84623  0.10923  1.0000
  O   O22       1.0  0.31768  0.34623  0.10923  1.0000
  O   O23       1.0  0.18232  0.84623  0.89077  1.0000
  O   O24       1.0  0.68232  0.34623  0.89077  1.0000
  O   O25       1.0  0.22325  0.24914  0.19782  1.0000
  O   O26       1.0  0.72325  0.74914  0.19782  1.0000
  O   O27       1.0  0.77675  0.24914  0.80218  1.0000
  O   O28       1.0  0.27675  0.74914  0.80218  1.0000
  O   O29       1.0  0.77675  0.75086  0.80218  1.0000
  O   O30       1.0  0.27675  0.25086  0.80218  1.0000
  O   O31       1.0  0.22325  0.75086  0.19782  1.0000
  O   O32       1.0  0.72325  0.25086  0.19782  1.0000
  O   O33       1.0  0.12587  0.36730  0.41244  1.0000
  O   O34       1.0  0.62587  0.86730  0.41244  1.0000
  O   O35       1.0  0.87413  0.36730  0.58756  1.0000
  O   O36       1.0  0.37413  0.86730  0.58756  1.0000
  O   O37       1.0  0.87413  0.63270  0.58756  1.0000
  O   O38       1.0  0.37413  0.13270  0.58756  1.0000
  O   O39       1.0  0.12587  0.63270  0.41244  1.0000
  O   O40       1.0  0.62587  0.13270  0.41244  1.0000
  O   O41       1.0  0.19811  0.50000  0.44746  1.0000
  O   O42       1.0  0.69811  1.00000  0.44746  1.0000
  O   O43       1.0  0.80189  0.50000  0.55254  1.0000
  O   O44       1.0  0.30189  0.00000  0.55254  1.0000
  O   O45       1.0  0.27231  0.37890  0.39226  1.0000
  O   O46       1.0  0.77231  0.87890  0.39226  1.0000
  O   O47       1.0  0.72769  0.37890  0.60774  1.0000
  O   O48       1.0  0.22769  0.87890  0.60774  1.0000
  O   O49       1.0  0.72769  0.62110  0.60774  1.0000
  O   O50       1.0  0.22769  0.12110  0.60774  1.0000
  O   O51       1.0  0.27231  0.62110  0.39226  1.0000
  O   O52       1.0  0.77231  0.12110  0.39226  1.0000
  O   O53       1.0  0.11507  0.22959  0.54609  1.0000
  O   O54       1.0  0.61507  0.72959  0.54609  1.0000
  O   O55       1.0  0.88493  0.22959  0.45391  1.0000
  O   O56       1.0  0.38493  0.72959  0.45391  1.0000
  O   O57       1.0  0.88493  0.77041  0.45391  1.0000
  O   O58       1.0  0.38493  0.27041  0.45391  1.0000
  O   O59       1.0  0.11507  0.77041  0.54609  1.0000
  O   O60       1.0  0.61507  0.27041  0.54609  1.0000
  O   O61       1.0  0.00000  0.33454  0.50000  1.0000
  O   O62       1.0  0.50000  0.83454  0.50000  1.0000
  O   O63       1.0  1.00000  0.66546  0.50000  1.0000
  O   O64       1.0  0.50000  0.16546  0.50000  1.0000
  O   O65       1.0  0.00486  0.27331  0.18215  1.0000
  O   O66       1.0  0.50486  0.77331  0.18215  1.0000
  O   O67       1.0  0.99514  0.27331  0.81785  1.0000
  O   O68       1.0  0.49514  0.77331  0.81785  1.0000
  O   O69       1.0  0.99514  0.72669  0.81785  1.0000
  O   O70       1.0  0.49514  0.22669  0.81785  1.0000
  O   O71       1.0  0.00486  0.72669  0.18215  1.0000
  O   O72       1.0  0.50486  0.22669  0.18215  1.0000
  Si  Si1       1.0  0.18071  0.16738  0.10462  1.0000
  Si  Si2       1.0  0.68071  0.66738  0.10462  1.0000
  Si  Si3       1.0  0.81929  0.16738  0.89538  1.0000
  Si  Si4       1.0  0.31929  0.66738  0.89538  1.0000
  Si  Si5       1.0  0.81929  0.83262  0.89538  1.0000
  Si  Si6       1.0  0.31929  0.33262  0.89538  1.0000
  Si  Si7       1.0  0.18071  0.83262  0.10462  1.0000
  Si  Si8       1.0  0.68071  0.33262  0.10462  1.0000
  Si  Si9       1.0  0.21589  0.41139  0.49832  1.0000
  Si  Si10      1.0  0.71589  0.91139  0.49832  1.0000
  Si  Si11      1.0  0.78411  0.41139  0.50168  1.0000
  Si  Si12      1.0  0.28411  0.91139  0.50168  1.0000
  Si  Si13      1.0  0.78411  0.58861  0.50168  1.0000
  Si  Si14      1.0  0.28411  0.08861  0.50168  1.0000
  Si  Si15      1.0  0.21589  0.58861  0.49832  1.0000
  Si  Si16      1.0  0.71588  0.08861  0.49832  1.0000
  Si  Si17      1.0  0.20013  0.18904  0.71174  1.0000
  Si  Si18      1.0  0.70013  0.68904  0.71174  1.0000
  Si  Si19      1.0  0.79987  0.18904  0.28826  1.0000
  Si  Si20      1.0  0.29987  0.68904  0.28826  1.0000
  Si  Si21      1.0  0.79987  0.81096  0.28826  1.0000
  Si  Si22      1.0  0.29987  0.31096  0.28826  1.0000
  Si  Si23      1.0  0.20013  0.81096  0.71174  1.0000
  Si  Si24      1.0  0.70013  0.31096  0.71174  1.0000
  Si  Si25      1.0  0.06212  0.30123  0.41076  1.0000
  Si  Si26      1.0  0.56212  0.80123  0.41076  1.0000
  Si  Si27      1.0  0.93788  0.30123  0.58924  1.0000
  Si  Si28      1.0  0.43788  0.80123  0.58924  1.0000
  Si  Si29      1.0  0.93788  0.69877  0.58924  1.0000
  Si  Si30      1.0  0.43788  0.19877  0.58924  1.0000
  Si  Si31      1.0  0.06212  0.69877  0.41076  1.0000
  Si  Si32      1.0  0.56212  0.19877  0.41076  1.0000
  Si  Si33      1.0  1.00000  0.21986  1.00000  1.0000
  Si  Si34      1.0  0.50000  0.71986  0.00000  1.0000
  Si  Si35      1.0  1.00000  0.78014  1.00000  1.0000
  Si  Si36      1.0  0.50000  0.28014  1.00000  1.0000
