data_image0
_chemical_formula_structural       O48Si24
_chemical_formula_sum              "O48 Si24"
_cell_length_a       11.8416
_cell_length_b       11.8416
_cell_length_c       11.8416
_cell_angle_alpha    89.9998
_cell_angle_beta     90.0001
_cell_angle_gamma    89.9997

_space_group_name_H-M_alt    "P 1"
_space_group_IT_number       1

loop_
  _space_group_symop_operation_xyz
  'x, y, z'

loop_
  _atom_site_type_symbol
  _atom_site_label
  _atom_site_symmetry_multiplicity
  _atom_site_fract_x
  _atom_site_fract_y
  _atom_site_fract_z
  _atom_site_occupancy
  O   O1        1.0  1.00000  0.21184  0.50000  1.0000
  O   O2        1.0  0.50000  0.99999  0.21184  1.0000
  O   O3        1.0  0.21185  0.50000  1.00000  1.0000
  O   O4        1.0  0.50000  0.00001  0.78816  1.0000
  O   O5        1.0  0.78815  0.50000  0.00000  1.0000
  O   O6        1.0  0.21185  1.00000  0.50000  1.0000
  O   O7        1.0  1.00000  0.50000  0.21185  1.0000
  O   O8        1.0  0.50000  0.21184  0.99999  1.0000
  O   O9        1.0  0.00000  0.50000  0.78815  1.0000
  O   O10       1.0  0.50000  0.78816  0.00001  1.0000
  O   O11       1.0  0.00000  0.78816  0.50000  1.0000
  O   O12       1.0  0.78815  0.00000  0.50000  1.0000
  O   O13       1.0  0.11131  0.11131  0.33553  1.0000
  O   O14       1.0  0.33553  0.11131  0.11131  1.0000
  O   O15       1.0  0.11131  0.33553  0.11131  1.0000
  O   O16       1.0  0.11131  0.11131  0.66447  1.0000
  O   O17       1.0  0.33552  0.11132  0.88869  1.0000
  O   O18       1.0  0.11132  0.33552  0.88869  1.0000
  O   O19       1.0  0.88869  0.11131  0.33552  1.0000
  O   O20       1.0  0.66447  0.11131  0.11131  1.0000
  O   O21       1.0  0.88869  0.33553  0.11131  1.0000
  O   O22       1.0  0.88869  0.11131  0.66448  1.0000
  O   O23       1.0  0.66448  0.11131  0.88869  1.0000
  O   O24       1.0  0.88869  0.33553  0.88869  1.0000
  O   O25       1.0  0.11131  0.88869  0.33552  1.0000
  O   O26       1.0  0.11131  0.66447  0.11131  1.0000
  O   O27       1.0  0.33552  0.88869  0.11131  1.0000
  O   O28       1.0  0.11131  0.88869  0.66448  1.0000
  O   O29       1.0  0.11131  0.66447  0.88869  1.0000
  O   O30       1.0  0.33553  0.88869  0.88869  1.0000
  O   O31       1.0  0.88869  0.88869  0.66447  1.0000
  O   O32       1.0  0.66447  0.88869  0.88869  1.0000
  O   O33       1.0  0.88869  0.66447  0.88869  1.0000
  O   O34       1.0  0.88869  0.88869  0.33552  1.0000
  O   O35       1.0  0.66448  0.88868  0.11131  1.0000
  O   O36       1.0  0.88868  0.66448  0.11131  1.0000
  O   O37       1.0  0.00000  0.29910  0.29910  1.0000
  O   O38       1.0  0.29910  0.00000  0.29910  1.0000
  O   O39       1.0  0.29910  0.29910  0.00001  1.0000
  O   O40       1.0  1.00000  0.29909  0.70090  1.0000
  O   O41       1.0  0.29909  1.00000  0.70090  1.0000
  O   O42       1.0  0.70091  0.00000  0.29910  1.0000
  O   O43       1.0  0.70091  0.29909  0.00000  1.0000
  O   O44       1.0  0.70090  1.00000  0.70090  1.0000
  O   O45       1.0  0.00000  0.70091  0.29910  1.0000
  O   O46       1.0  0.29909  0.70091  1.00000  1.0000
  O   O47       1.0  1.00000  0.70090  0.70090  1.0000
  O   O48       1.0  0.70090  0.70090  0.99999  1.0000
  Si  Si1       1.0  0.00000  0.18306  0.36745  1.0000
  Si  Si2       1.0  0.36745  1.00000  0.18306  1.0000
  Si  Si3       1.0  0.18306  0.36745  0.00000  1.0000
  Si  Si4       1.0  1.00000  0.18306  0.63256  1.0000
  Si  Si5       1.0  0.36744  0.00000  0.81694  1.0000
  Si  Si6       1.0  0.63256  1.00000  0.18306  1.0000
  Si  Si7       1.0  0.81694  0.36744  0.00000  1.0000
  Si  Si8       1.0  0.63255  0.00000  0.81694  1.0000
  Si  Si9       1.0  0.18306  0.00000  0.36745  1.0000
  Si  Si10      1.0  1.00000  0.36745  0.18306  1.0000
  Si  Si11      1.0  0.36744  0.18306  1.00000  1.0000
  Si  Si12      1.0  0.18306  1.00000  0.63256  1.0000
  Si  Si13      1.0  0.00000  0.36744  0.81694  1.0000
  Si  Si14      1.0  1.00000  0.63256  0.18306  1.0000
  Si  Si15      1.0  0.36744  0.81695  0.00000  1.0000
  Si  Si16      1.0  0.00000  0.63255  0.81694  1.0000
  Si  Si17      1.0  1.00000  0.81694  0.63255  1.0000
  Si  Si18      1.0  0.81694  0.63255  1.00000  1.0000
  Si  Si19      1.0  0.00000  0.81694  0.36744  1.0000
  Si  Si20      1.0  0.18306  0.63256  1.00000  1.0000
  Si  Si21      1.0  0.81694  1.00000  0.63255  1.0000
  Si  Si22      1.0  0.63256  0.81694  0.00000  1.0000
  Si  Si23      1.0  0.81694  0.00000  0.36744  1.0000
  Si  Si24      1.0  0.63256  0.18305  1.00000  1.0000
