data_image0
_chemical_formula_structural       O68Si34
_chemical_formula_sum              "O68 Si34"
_cell_length_a       13.1184
_cell_length_b       13.1184
_cell_length_c       15.6019
_cell_angle_alpha    89.9998
_cell_angle_beta     90
_cell_angle_gamma    120

_space_group_name_H-M_alt    "P 1"
_space_group_IT_number       1

loop_
  _space_group_symop_operation_xyz
  'x, y, z'

loop_
  _atom_site_type_symbol
  _atom_site_label
  _atom_site_symmetry_multiplicity
  _atom_site_fract_x
  _atom_site_fract_y
  _atom_site_fract_z
  _atom_site_occupancy
  O   O1        1.0  0.80343  0.22156  0.50803  1.0000
  O   O2        1.0  0.77844  0.58187  0.50803  1.0000
  O   O3        1.0  0.41813  0.19657  0.50803  1.0000
  O   O4        1.0  0.19657  0.77844  0.00803  1.0000
  O   O5        1.0  0.22156  0.41813  0.00803  1.0000
  O   O6        1.0  0.58187  0.80343  0.00803  1.0000
  O   O7        1.0  0.19657  0.77844  0.49197  1.0000
  O   O8        1.0  0.22156  0.41813  0.49197  1.0000
  O   O9        1.0  0.58187  0.80343  0.49197  1.0000
  O   O10       1.0  0.80343  0.22156  0.99197  1.0000
  O   O11       1.0  0.77844  0.58187  0.99197  1.0000
  O   O12       1.0  0.41813  0.19657  0.99197  1.0000
  O   O13       1.0  0.66012  0.21411  0.38632  1.0000
  O   O14       1.0  0.78589  0.44600  0.38632  1.0000
  O   O15       1.0  0.55400  0.33988  0.38632  1.0000
  O   O16       1.0  0.33988  0.78589  0.88632  1.0000
  O   O17       1.0  0.21411  0.55400  0.88633  1.0000
  O   O18       1.0  0.44600  0.66012  0.88633  1.0000
  O   O19       1.0  0.33988  0.78589  0.61368  1.0000
  O   O20       1.0  0.21411  0.55400  0.61368  1.0000
  O   O21       1.0  0.44600  0.66012  0.61368  1.0000
  O   O22       1.0  0.66012  0.21411  0.11368  1.0000
  O   O23       1.0  0.78589  0.44600  0.11367  1.0000
  O   O24       1.0  0.55400  0.33988  0.11367  1.0000
  O   O25       1.0  0.64634  0.01942  0.44472  1.0000
  O   O26       1.0  0.98058  0.62693  0.44472  1.0000
  O   O27       1.0  0.37308  0.35366  0.44472  1.0000
  O   O28       1.0  0.35366  0.98058  0.94472  1.0000
  O   O29       1.0  0.01942  0.37307  0.94472  1.0000
  O   O30       1.0  0.62692  0.64634  0.94472  1.0000
  O   O31       1.0  0.35366  0.98058  0.55528  1.0000
  O   O32       1.0  0.01942  0.37307  0.55528  1.0000
  O   O33       1.0  0.62692  0.64634  0.55528  1.0000
  O   O34       1.0  0.64634  0.01942  0.05528  1.0000
  O   O35       1.0  0.98058  0.62693  0.05528  1.0000
  O   O36       1.0  0.37308  0.35366  0.05528  1.0000
  O   O37       1.0  0.57989  0.14009  0.54229  1.0000
  O   O38       1.0  0.85991  0.43980  0.54229  1.0000
  O   O39       1.0  0.56020  0.42011  0.54229  1.0000
  O   O40       1.0  0.42012  0.85991  0.04229  1.0000
  O   O41       1.0  0.14009  0.56020  0.04229  1.0000
  O   O42       1.0  0.43980  0.57989  0.04229  1.0000
  O   O43       1.0  0.42011  0.85991  0.45771  1.0000
  O   O44       1.0  0.14009  0.56020  0.45771  1.0000
  O   O45       1.0  0.43980  0.57989  0.45771  1.0000
  O   O46       1.0  0.57988  0.14009  0.95771  1.0000
  O   O47       1.0  0.85991  0.43980  0.95771  1.0000
  O   O48       1.0  0.56020  0.42011  0.95771  1.0000
  O   O49       1.0  0.45064  0.15066  0.66658  1.0000
  O   O50       1.0  0.84933  0.29998  0.66657  1.0000
  O   O51       1.0  0.70002  0.54936  0.66658  1.0000
  O   O52       1.0  0.54936  0.84934  0.16658  1.0000
  O   O53       1.0  0.15066  0.70002  0.16658  1.0000
  O   O54       1.0  0.29998  0.45064  0.16658  1.0000
  O   O55       1.0  0.54936  0.84934  0.33342  1.0000
  O   O56       1.0  0.15067  0.70002  0.33343  1.0000
  O   O57       1.0  0.29998  0.45064  0.33342  1.0000
  O   O58       1.0  0.45064  0.15066  0.83342  1.0000
  O   O59       1.0  0.84934  0.29998  0.83342  1.0000
  O   O60       1.0  0.70002  0.54936  0.83342  1.0000
  O   O61       1.0  0.56217  0.35227  0.75000  1.0000
  O   O62       1.0  0.64773  0.20990  0.75000  1.0000
  O   O63       1.0  0.79011  0.43783  0.75000  1.0000
  O   O64       1.0  0.43783  0.64773  0.25000  1.0000
  O   O65       1.0  0.35227  0.79010  0.25000  1.0000
  O   O66       1.0  0.20989  0.56217  0.25000  1.0000
  O   O67       1.0  0.66667  0.33333  0.25000  1.0000
  O   O68       1.0  0.33333  0.66667  0.75000  1.0000
  Si  Si1       1.0  0.67212  0.14851  0.46998  1.0000
  Si  Si2       1.0  0.85149  0.52361  0.46998  1.0000
  Si  Si3       1.0  0.47639  0.32788  0.46998  1.0000
  Si  Si4       1.0  0.32788  0.85149  0.96998  1.0000
  Si  Si5       1.0  0.14851  0.47639  0.96998  1.0000
  Si  Si6       1.0  0.52361  0.67212  0.96998  1.0000
  Si  Si7       1.0  0.32788  0.85149  0.53002  1.0000
  Si  Si8       1.0  0.14851  0.47639  0.53002  1.0000
  Si  Si9       1.0  0.52361  0.67212  0.53002  1.0000
  Si  Si10      1.0  0.67212  0.14851  0.03002  1.0000
  Si  Si11      1.0  0.85149  0.52361  0.03002  1.0000
  Si  Si12      1.0  0.47639  0.32788  0.03002  1.0000
  Si  Si13      1.0  0.45034  0.11669  0.56785  1.0000
  Si  Si14      1.0  0.88331  0.33365  0.56785  1.0000
  Si  Si15      1.0  0.66635  0.54966  0.56785  1.0000
  Si  Si16      1.0  0.54966  0.88331  0.06785  1.0000
  Si  Si17      1.0  0.11669  0.66635  0.06785  1.0000
  Si  Si18      1.0  0.33365  0.45034  0.06785  1.0000
  Si  Si19      1.0  0.54966  0.88331  0.43215  1.0000
  Si  Si20      1.0  0.11669  0.66635  0.43215  1.0000
  Si  Si21      1.0  0.33365  0.45034  0.43215  1.0000
  Si  Si22      1.0  0.45034  0.11669  0.93215  1.0000
  Si  Si23      1.0  0.88331  0.33365  0.93215  1.0000
  Si  Si24      1.0  0.66635  0.54966  0.93215  1.0000
  Si  Si25      1.0  0.52678  0.21496  0.75000  1.0000
  Si  Si26      1.0  0.78504  0.31182  0.75000  1.0000
  Si  Si27      1.0  0.68818  0.47322  0.75000  1.0000
  Si  Si28      1.0  0.47322  0.78504  0.25000  1.0000
  Si  Si29      1.0  0.21496  0.68818  0.25000  1.0000
  Si  Si30      1.0  0.31182  0.52678  0.25000  1.0000
  Si  Si31      1.0  0.66667  0.33333  0.35196  1.0000
  Si  Si32      1.0  0.33333  0.66667  0.85196  1.0000
  Si  Si33      1.0  0.33333  0.66667  0.64804  1.0000
  Si  Si34      1.0  0.66667  0.33333  0.14804  1.0000
