data_image0
_chemical_formula_structural       O180Si90
_chemical_formula_sum              "O180 Si90"
_cell_length_a       17.2484
_cell_length_b       17.2484
_cell_length_c       19.3682
_cell_angle_alpha    89.9998
_cell_angle_beta     90.0002
_cell_angle_gamma    120

_space_group_name_H-M_alt    "P 1"
_space_group_IT_number       1

loop_
  _space_group_symop_operation_xyz
  'x, y, z'

loop_
  _atom_site_type_symbol
  _atom_site_label
  _atom_site_symmetry_multiplicity
  _atom_site_fract_x
  _atom_site_fract_y
  _atom_site_fract_z
  _atom_site_occupancy
  O   O1        1.0  0.09454  0.18908  0.28786  1.0000
  O   O2        1.0  0.76121  0.52241  0.62120  1.0000
  O   O3        1.0  0.42787  0.85575  0.95453  1.0000
  O   O4        1.0  0.81092  0.90546  0.28786  1.0000
  O   O5        1.0  0.47759  0.23879  0.62120  1.0000
  O   O6        1.0  0.14425  0.57213  0.95453  1.0000
  O   O7        1.0  0.09454  0.90546  0.28786  1.0000
  O   O8        1.0  0.76121  0.23879  0.62119  1.0000
  O   O9        1.0  0.42787  0.57213  0.95453  1.0000
  O   O10       1.0  0.90546  0.81092  0.71214  1.0000
  O   O11       1.0  0.57213  0.14425  0.04547  1.0000
  O   O12       1.0  0.23879  0.47759  0.37880  1.0000
  O   O13       1.0  0.18908  0.09454  0.71214  1.0000
  O   O14       1.0  0.85575  0.42787  0.04547  1.0000
  O   O15       1.0  0.52241  0.76121  0.37880  1.0000
  O   O16       1.0  0.90546  0.09454  0.71214  1.0000
  O   O17       1.0  0.57213  0.42787  0.04547  1.0000
  O   O18       1.0  0.23879  0.76121  0.37881  1.0000
  O   O19       1.0  0.92170  0.07830  0.28815  1.0000
  O   O20       1.0  0.58837  0.41163  0.62149  1.0000
  O   O21       1.0  0.25503  0.74497  0.95482  1.0000
  O   O22       1.0  0.92170  0.84340  0.28815  1.0000
  O   O23       1.0  0.58837  0.17673  0.62148  1.0000
  O   O24       1.0  0.25503  0.51007  0.95482  1.0000
  O   O25       1.0  0.15660  0.07830  0.28815  1.0000
  O   O26       1.0  0.82327  0.41163  0.62148  1.0000
  O   O27       1.0  0.48993  0.74497  0.95482  1.0000
  O   O28       1.0  0.07830  0.92170  0.71185  1.0000
  O   O29       1.0  0.74497  0.25503  0.04518  1.0000
  O   O30       1.0  0.41163  0.58837  0.37851  1.0000
  O   O31       1.0  0.07830  0.15660  0.71185  1.0000
  O   O32       1.0  0.74497  0.48993  0.04518  1.0000
  O   O33       1.0  0.41163  0.82327  0.37852  1.0000
  O   O34       1.0  0.84340  0.92170  0.71185  1.0000
  O   O35       1.0  0.51007  0.25503  0.04518  1.0000
  O   O36       1.0  0.17673  0.58837  0.37852  1.0000
  O   O37       1.0  0.98585  0.24715  0.32052  1.0000
  O   O38       1.0  0.65252  0.58048  0.65386  1.0000
  O   O39       1.0  0.31918  0.91381  0.98719  1.0000
  O   O40       1.0  0.75285  0.73870  0.32052  1.0000
  O   O41       1.0  0.41952  0.07204  0.65386  1.0000
  O   O42       1.0  0.08619  0.40537  0.98719  1.0000
  O   O43       1.0  0.26130  0.01415  0.32052  1.0000
  O   O44       1.0  0.92796  0.34749  0.65386  1.0000
  O   O45       1.0  0.59463  0.68082  0.98719  1.0000
  O   O46       1.0  0.75285  0.01415  0.32052  1.0000
  O   O47       1.0  0.41952  0.34749  0.65386  1.0000
  O   O48       1.0  0.08619  0.68082  0.98719  1.0000
  O   O49       1.0  0.26130  0.24715  0.32052  1.0000
  O   O50       1.0  0.92797  0.58048  0.65385  1.0000
  O   O51       1.0  0.59463  0.91381  0.98719  1.0000
  O   O52       1.0  0.98585  0.73870  0.32052  1.0000
  O   O53       1.0  0.65252  0.07204  0.65386  1.0000
  O   O54       1.0  0.31918  0.40537  0.98719  1.0000
  O   O55       1.0  0.01415  0.75285  0.67948  1.0000
  O   O56       1.0  0.68082  0.08619  0.01281  1.0000
  O   O57       1.0  0.34748  0.41952  0.34614  1.0000
  O   O58       1.0  0.24715  0.26130  0.67948  1.0000
  O   O59       1.0  0.91381  0.59463  0.01281  1.0000
  O   O60       1.0  0.58048  0.92796  0.34614  1.0000
  O   O61       1.0  0.73870  0.98585  0.67948  1.0000
  O   O62       1.0  0.40537  0.31918  0.01281  1.0000
  O   O63       1.0  0.07204  0.65251  0.34614  1.0000
  O   O64       1.0  0.24715  0.98585  0.67948  1.0000
  O   O65       1.0  0.91381  0.31918  0.01281  1.0000
  O   O66       1.0  0.58048  0.65251  0.34614  1.0000
  O   O67       1.0  0.73870  0.75285  0.67948  1.0000
  O   O68       1.0  0.40537  0.08619  0.01281  1.0000
  O   O69       1.0  0.07203  0.41952  0.34615  1.0000
  O   O70       1.0  0.01415  0.26130  0.67948  1.0000
  O   O71       1.0  0.68082  0.59463  0.01281  1.0000
  O   O72       1.0  0.34748  0.92796  0.34614  1.0000
  O   O73       1.0  0.99358  0.20261  0.19209  1.0000
  O   O74       1.0  0.66025  0.53595  0.52542  1.0000
  O   O75       1.0  0.32691  0.86928  0.85876  1.0000
  O   O76       1.0  0.79739  0.79097  0.19209  1.0000
  O   O77       1.0  0.46405  0.12430  0.52542  1.0000
  O   O78       1.0  0.13072  0.45763  0.85875  1.0000
  O   O79       1.0  0.20903  0.00642  0.19209  1.0000
  O   O80       1.0  0.87570  0.33975  0.52542  1.0000
  O   O81       1.0  0.54237  0.67308  0.85876  1.0000
  O   O82       1.0  0.79738  0.00642  0.19209  1.0000
  O   O83       1.0  0.46405  0.33975  0.52542  1.0000
  O   O84       1.0  0.13072  0.67308  0.85876  1.0000
  O   O85       1.0  0.20903  0.20262  0.19209  1.0000
  O   O86       1.0  0.87570  0.53595  0.52542  1.0000
  O   O87       1.0  0.54237  0.86928  0.85875  1.0000
  O   O88       1.0  0.99358  0.79097  0.19209  1.0000
  O   O89       1.0  0.66025  0.12430  0.52542  1.0000
  O   O90       1.0  0.32692  0.45763  0.85875  1.0000
  O   O91       1.0  0.00642  0.79739  0.80791  1.0000
  O   O92       1.0  0.67309  0.13072  0.14124  1.0000
  O   O93       1.0  0.33975  0.46405  0.47458  1.0000
  O   O94       1.0  0.20261  0.20903  0.80791  1.0000
  O   O95       1.0  0.86928  0.54237  0.14125  1.0000
  O   O96       1.0  0.53595  0.87570  0.47458  1.0000
  O   O97       1.0  0.79097  0.99358  0.80791  1.0000
  O   O98       1.0  0.45763  0.32692  0.14124  1.0000
  O   O99       1.0  0.12430  0.66025  0.47458  1.0000
  O   O100      1.0  0.20262  0.99358  0.80791  1.0000
  O   O101      1.0  0.86928  0.32692  0.14124  1.0000
  O   O102      1.0  0.53595  0.66025  0.47458  1.0000
  O   O103      1.0  0.79097  0.79738  0.80791  1.0000
  O   O104      1.0  0.45763  0.13072  0.14125  1.0000
  O   O105      1.0  0.12430  0.46405  0.47458  1.0000
  O   O106      1.0  0.00642  0.20903  0.80791  1.0000
  O   O107      1.0  0.67308  0.54237  0.14125  1.0000
  O   O108      1.0  0.33975  0.87570  0.47458  1.0000
  O   O109      1.0  0.07854  0.15708  0.10182  1.0000
  O   O110      1.0  0.74521  0.49042  0.43515  1.0000
  O   O111      1.0  0.41187  0.82375  0.76849  1.0000
  O   O112      1.0  0.84291  0.92146  0.10182  1.0000
  O   O113      1.0  0.50958  0.25479  0.43515  1.0000
  O   O114      1.0  0.17625  0.58812  0.76848  1.0000
  O   O115      1.0  0.07854  0.92146  0.10182  1.0000
  O   O116      1.0  0.74521  0.25479  0.43515  1.0000
  O   O117      1.0  0.41188  0.58812  0.76848  1.0000
  O   O118      1.0  0.92146  0.84292  0.89818  1.0000
  O   O119      1.0  0.58813  0.17625  0.23151  1.0000
  O   O120      1.0  0.25479  0.50958  0.56485  1.0000
  O   O121      1.0  0.15709  0.07854  0.89818  1.0000
  O   O122      1.0  0.82375  0.41188  0.23152  1.0000
  O   O123      1.0  0.49042  0.74521  0.56485  1.0000
  O   O124      1.0  0.92146  0.07854  0.89818  1.0000
  O   O125      1.0  0.58812  0.41188  0.23152  1.0000
  O   O126      1.0  0.25479  0.74521  0.56485  1.0000
  O   O127      1.0  0.01841  0.26459  0.06645  1.0000
  O   O128      1.0  0.68508  0.59792  0.39978  1.0000
  O   O129      1.0  0.35174  0.93125  0.73312  1.0000
  O   O130      1.0  0.73541  0.75382  0.06645  1.0000
  O   O131      1.0  0.40208  0.08715  0.39978  1.0000
  O   O132      1.0  0.06875  0.42048  0.73312  1.0000
  O   O133      1.0  0.24618  0.98159  0.06645  1.0000
  O   O134      1.0  0.91284  0.31492  0.39978  1.0000
  O   O135      1.0  0.57951  0.64826  0.73312  1.0000
  O   O136      1.0  0.73541  0.98159  0.06645  1.0000
  O   O137      1.0  0.40208  0.31492  0.39978  1.0000
  O   O138      1.0  0.06874  0.64826  0.73312  1.0000
  O   O139      1.0  0.24618  0.26459  0.06645  1.0000
  O   O140      1.0  0.91285  0.59792  0.39978  1.0000
  O   O141      1.0  0.57951  0.93125  0.73312  1.0000
  O   O142      1.0  0.01841  0.75382  0.06645  1.0000
  O   O143      1.0  0.68507  0.08715  0.39978  1.0000
  O   O144      1.0  0.35174  0.42048  0.73312  1.0000
  O   O145      1.0  0.98159  0.73541  0.93355  1.0000
  O   O146      1.0  0.64826  0.06875  0.26688  1.0000
  O   O147      1.0  0.31492  0.40208  0.60022  1.0000
  O   O148      1.0  0.26459  0.24618  0.93355  1.0000
  O   O149      1.0  0.93125  0.57952  0.26688  1.0000
  O   O150      1.0  0.59792  0.91285  0.60022  1.0000
  O   O151      1.0  0.75382  0.01841  0.93355  1.0000
  O   O152      1.0  0.42049  0.35174  0.26688  1.0000
  O   O153      1.0  0.08716  0.68508  0.60022  1.0000
  O   O154      1.0  0.26459  0.01841  0.93355  1.0000
  O   O155      1.0  0.93126  0.35174  0.26688  1.0000
  O   O156      1.0  0.59792  0.68508  0.60022  1.0000
  O   O157      1.0  0.75382  0.73541  0.93355  1.0000
  O   O158      1.0  0.42049  0.06875  0.26688  1.0000
  O   O159      1.0  0.08715  0.40208  0.60022  1.0000
  O   O160      1.0  0.98159  0.24618  0.93355  1.0000
  O   O161      1.0  0.64826  0.57952  0.26688  1.0000
  O   O162      1.0  0.31493  0.91285  0.60022  1.0000
  O   O163      1.0  0.90596  0.09403  0.08869  1.0000
  O   O164      1.0  0.57263  0.42737  0.42202  1.0000
  O   O165      1.0  0.23930  0.76070  0.75535  1.0000
  O   O166      1.0  0.90597  0.81193  0.08868  1.0000
  O   O167      1.0  0.57263  0.14527  0.42202  1.0000
  O   O168      1.0  0.23930  0.47860  0.75535  1.0000
  O   O169      1.0  0.18807  0.09403  0.08869  1.0000
  O   O170      1.0  0.85473  0.42737  0.42202  1.0000
  O   O171      1.0  0.52140  0.76070  0.75535  1.0000
  O   O172      1.0  0.09404  0.90597  0.91131  1.0000
  O   O173      1.0  0.76070  0.23930  0.24465  1.0000
  O   O174      1.0  0.42737  0.57263  0.57798  1.0000
  O   O175      1.0  0.09403  0.18807  0.91132  1.0000
  O   O176      1.0  0.76070  0.52140  0.24465  1.0000
  O   O177      1.0  0.42737  0.85473  0.57798  1.0000
  O   O178      1.0  0.81193  0.90597  0.91131  1.0000
  O   O179      1.0  0.47860  0.23930  0.24465  1.0000
  O   O180      1.0  0.14527  0.57263  0.57798  1.0000
  Si  Si1       1.0  0.99895  0.17937  0.27212  1.0000
  Si  Si2       1.0  0.66561  0.51271  0.60546  1.0000
  Si  Si3       1.0  0.33228  0.84604  0.93879  1.0000
  Si  Si4       1.0  0.82063  0.81957  0.27212  1.0000
  Si  Si5       1.0  0.48729  0.15291  0.60546  1.0000
  Si  Si6       1.0  0.15396  0.48624  0.93879  1.0000
  Si  Si7       1.0  0.18043  0.00105  0.27212  1.0000
  Si  Si8       1.0  0.84709  0.33439  0.60546  1.0000
  Si  Si9       1.0  0.51376  0.66772  0.93879  1.0000
  Si  Si10      1.0  0.82063  0.00105  0.27212  1.0000
  Si  Si11      1.0  0.48729  0.33439  0.60546  1.0000
  Si  Si12      1.0  0.15396  0.66772  0.93879  1.0000
  Si  Si13      1.0  0.18043  0.17937  0.27212  1.0000
  Si  Si14      1.0  0.84709  0.51271  0.60545  1.0000
  Si  Si15      1.0  0.51376  0.84604  0.93879  1.0000
  Si  Si16      1.0  0.99895  0.81957  0.27212  1.0000
  Si  Si17      1.0  0.66561  0.15291  0.60545  1.0000
  Si  Si18      1.0  0.33228  0.48624  0.93879  1.0000
  Si  Si19      1.0  0.00105  0.82063  0.72788  1.0000
  Si  Si20      1.0  0.66772  0.15396  0.06121  1.0000
  Si  Si21      1.0  0.33439  0.48729  0.39454  1.0000
  Si  Si22      1.0  0.17937  0.18043  0.72788  1.0000
  Si  Si23      1.0  0.84604  0.51376  0.06121  1.0000
  Si  Si24      1.0  0.51271  0.84709  0.39454  1.0000
  Si  Si25      1.0  0.81957  0.99895  0.72788  1.0000
  Si  Si26      1.0  0.48624  0.33228  0.06121  1.0000
  Si  Si27      1.0  0.15291  0.66561  0.39454  1.0000
  Si  Si28      1.0  0.17937  0.99895  0.72788  1.0000
  Si  Si29      1.0  0.84604  0.33228  0.06121  1.0000
  Si  Si30      1.0  0.51271  0.66561  0.39454  1.0000
  Si  Si31      1.0  0.81957  0.82063  0.72788  1.0000
  Si  Si32      1.0  0.48624  0.15396  0.06121  1.0000
  Si  Si33      1.0  0.15291  0.48729  0.39455  1.0000
  Si  Si34      1.0  0.00105  0.18043  0.72788  1.0000
  Si  Si35      1.0  0.66772  0.51376  0.06121  1.0000
  Si  Si36      1.0  0.33439  0.84709  0.39455  1.0000
  Si  Si37      1.0  0.99927  0.17961  0.11225  1.0000
  Si  Si38      1.0  0.66594  0.51295  0.44558  1.0000
  Si  Si39      1.0  0.33260  0.84628  0.77892  1.0000
  Si  Si40      1.0  0.82039  0.81966  0.11225  1.0000
  Si  Si41      1.0  0.48705  0.15299  0.44558  1.0000
  Si  Si42      1.0  0.15372  0.48632  0.77891  1.0000
  Si  Si43      1.0  0.18034  0.00073  0.11225  1.0000
  Si  Si44      1.0  0.84701  0.33406  0.44558  1.0000
  Si  Si45      1.0  0.51367  0.66739  0.77892  1.0000
  Si  Si46      1.0  0.82038  0.00072  0.11225  1.0000
  Si  Si47      1.0  0.48705  0.33406  0.44558  1.0000
  Si  Si48      1.0  0.15372  0.66739  0.77892  1.0000
  Si  Si49      1.0  0.18034  0.17961  0.11225  1.0000
  Si  Si50      1.0  0.84701  0.51295  0.44558  1.0000
  Si  Si51      1.0  0.51367  0.84628  0.77891  1.0000
  Si  Si52      1.0  0.99927  0.81966  0.11225  1.0000
  Si  Si53      1.0  0.66594  0.15299  0.44558  1.0000
  Si  Si54      1.0  0.33261  0.48632  0.77891  1.0000
  Si  Si55      1.0  0.00073  0.82039  0.88775  1.0000
  Si  Si56      1.0  0.66740  0.15372  0.22108  1.0000
  Si  Si57      1.0  0.33406  0.48705  0.55442  1.0000
  Si  Si58      1.0  0.17961  0.18034  0.88775  1.0000
  Si  Si59      1.0  0.84628  0.51368  0.22109  1.0000
  Si  Si60      1.0  0.51295  0.84701  0.55442  1.0000
  Si  Si61      1.0  0.81966  0.99927  0.88775  1.0000
  Si  Si62      1.0  0.48633  0.33261  0.22108  1.0000
  Si  Si63      1.0  0.15299  0.66594  0.55442  1.0000
  Si  Si64      1.0  0.17962  0.99928  0.88775  1.0000
  Si  Si65      1.0  0.84628  0.33261  0.22108  1.0000
  Si  Si66      1.0  0.51295  0.66594  0.55442  1.0000
  Si  Si67      1.0  0.81966  0.82039  0.88775  1.0000
  Si  Si68      1.0  0.48633  0.15372  0.22109  1.0000
  Si  Si69      1.0  0.15299  0.48705  0.55442  1.0000
  Si  Si70      1.0  0.00073  0.18034  0.88775  1.0000
  Si  Si71      1.0  0.66739  0.51368  0.22109  1.0000
  Si  Si72      1.0  0.33406  0.84701  0.55442  1.0000
  Si  Si73      1.0  0.00000  0.30885  0.00000  1.0000
  Si  Si74      1.0  0.66667  0.64218  0.33333  1.0000
  Si  Si75      1.0  0.33333  0.97551  0.66667  1.0000
  Si  Si76      1.0  0.69115  0.69115  0.00000  1.0000
  Si  Si77      1.0  0.35782  0.02449  0.33333  1.0000
  Si  Si78      1.0  0.02449  0.35782  0.66667  1.0000
  Si  Si79      1.0  0.30884  1.00000  0.00000  1.0000
  Si  Si80      1.0  0.97551  0.33333  0.33333  1.0000
  Si  Si81      1.0  0.64218  0.66667  0.66667  1.0000
  Si  Si82      1.0  0.69116  0.00000  1.00000  1.0000
  Si  Si83      1.0  0.35782  0.33333  0.33333  1.0000
  Si  Si84      1.0  0.02449  0.66667  0.66667  1.0000
  Si  Si85      1.0  0.30885  0.30885  1.00000  1.0000
  Si  Si86      1.0  0.97551  0.64218  0.33333  1.0000
  Si  Si87      1.0  0.64218  0.97551  0.66667  1.0000
  Si  Si88      1.0  1.00000  0.69115  1.00000  1.0000
  Si  Si89      1.0  0.66667  0.02449  0.33333  1.0000
  Si  Si90      1.0  0.33333  0.35782  0.66667  1.0000
