data_image0
_chemical_formula_structural       O20Si10
_chemical_formula_sum              "O20 Si10"
_cell_length_a       7.18206
_cell_length_b       7.18207
_cell_length_c       12.0933
_cell_angle_alpha    89.9999
_cell_angle_beta     90
_cell_angle_gamma    90

_space_group_name_H-M_alt    "P 1"
_space_group_IT_number       1

loop_
  _space_group_symop_operation_xyz
  'x, y, z'

loop_
  _atom_site_type_symbol
  _atom_site_label
  _atom_site_symmetry_multiplicity
  _atom_site_fract_x
  _atom_site_fract_y
  _atom_site_fract_z
  _atom_site_occupancy
  O   O1        1.0  0.00000  0.18130  0.07908  1.0000
  O   O2        1.0  0.50000  0.68130  0.57908  1.0000
  O   O3        1.0  0.81870  1.00000  0.92092  1.0000
  O   O4        1.0  0.31870  0.50000  0.42092  1.0000
  O   O5        1.0  0.00000  0.81870  0.07908  1.0000
  O   O6        1.0  0.50000  0.31870  0.57908  1.0000
  O   O7        1.0  0.18130  0.00000  0.92092  1.0000
  O   O8        1.0  0.68130  0.50000  0.42092  1.0000
  O   O9        1.0  1.00000  1.00000  0.73385  1.0000
  O   O10       1.0  0.50000  0.50000  0.23385  1.0000
  O   O11       1.0  0.00000  1.00000  0.26615  1.0000
  O   O12       1.0  0.50000  0.50000  0.76615  1.0000
  O   O13       1.0  0.31705  0.81705  0.75000  1.0000
  O   O14       1.0  0.81705  0.31705  0.25000  1.0000
  O   O15       1.0  0.18295  0.31705  0.25000  1.0000
  O   O16       1.0  0.68295  0.81705  0.75000  1.0000
  O   O17       1.0  0.68295  0.18295  0.75000  1.0000
  O   O18       1.0  0.18295  0.68295  0.25000  1.0000
  O   O19       1.0  0.81705  0.68295  0.25000  1.0000
  O   O20       1.0  0.31705  0.18295  0.75000  1.0000
  Si  Si1       1.0  1.00000  0.00000  1.00000  1.0000
  Si  Si2       1.0  0.50000  0.50000  0.50000  1.0000
  Si  Si3       1.0  0.20594  0.00000  0.78772  1.0000
  Si  Si4       1.0  0.70594  0.50000  0.28772  1.0000
  Si  Si5       1.0  0.00000  0.20594  0.21228  1.0000
  Si  Si6       1.0  0.50000  0.70594  0.71228  1.0000
  Si  Si7       1.0  0.79406  1.00000  0.78772  1.0000
  Si  Si8       1.0  0.29406  0.50000  0.28772  1.0000
  Si  Si9       1.0  0.00000  0.79406  0.21228  1.0000
  Si  Si10      1.0  0.50000  0.29406  0.71228  1.0000
