data_image0
_chemical_formula_structural       O12Si6
_chemical_formula_sum              "O12 Si6"
_cell_length_a       8.15255
_cell_length_b       8.15233
_cell_length_c       5.24822
_cell_angle_alpha    89.982
_cell_angle_beta     90.132
_cell_angle_gamma    119.998

_space_group_name_H-M_alt    "P 1"
_space_group_IT_number       1

loop_
  _space_group_symop_operation_xyz
  'x, y, z'

loop_
  _atom_site_type_symbol
  _atom_site_label
  _atom_site_symmetry_multiplicity
  _atom_site_fract_x
  _atom_site_fract_y
  _atom_site_fract_z
  _atom_site_occupancy
  O   O1        1.0  0.15498  0.67901  0.75010  1.0000
  O   O2        1.0  0.32102  0.47600  0.75116  1.0000
  O   O3        1.0  0.52400  0.84502  0.74876  1.0000
  O   O4        1.0  0.67897  0.15497  0.24869  1.0000
  O   O5        1.0  0.47600  0.32101  0.25107  1.0000
  O   O6        1.0  0.84501  0.52400  0.25025  1.0000
  O   O7        1.0  0.99962  0.35476  0.50079  1.0000
  O   O8        1.0  0.64573  0.64362  0.50429  1.0000
  O   O9        1.0  0.35401  0.99750  0.49491  1.0000
  O   O10       1.0  0.00038  0.35559  0.00078  1.0000
  O   O11       1.0  0.64390  0.64601  0.00427  1.0000
  O   O12       1.0  0.35634  0.00252  0.99491  1.0000
  Si  Si1       1.0  0.11697  0.46379  0.75075  1.0000
  Si  Si2       1.0  0.53623  0.65320  0.75215  1.0000
  Si  Si3       1.0  0.34680  0.88304  0.74710  1.0000
  Si  Si4       1.0  0.46376  0.11696  0.24735  1.0000
  Si  Si5       1.0  0.65318  0.53622  0.25252  1.0000
  Si  Si6       1.0  0.88303  0.34680  0.25012  1.0000
