data_image0
_chemical_formula_structural       O18Si9
_chemical_formula_sum              "O18 Si9"
_cell_length_a       10.1785
_cell_length_b       10.1785
_cell_length_c       7.71779
_cell_angle_alpha    90.0001
_cell_angle_beta     90
_cell_angle_gamma    120

_space_group_name_H-M_alt    "P 1"
_space_group_IT_number       1

loop_
  _space_group_symop_operation_xyz
  'x, y, z'

loop_
  _atom_site_type_symbol
  _atom_site_label
  _atom_site_symmetry_multiplicity
  _atom_site_fract_x
  _atom_site_fract_y
  _atom_site_fract_z
  _atom_site_occupancy
  O   O1        1.0  0.31721  0.68277  0.83331  1.0000
  O   O2        1.0  0.31723  0.63444  0.49998  1.0000
  O   O3        1.0  0.36556  0.68279  0.16665  1.0000
  O   O4        1.0  0.68277  0.31721  0.83336  1.0000
  O   O5        1.0  0.63444  0.31723  0.16669  1.0000
  O   O6        1.0  0.68279  0.36556  0.50002  1.0000
  O   O7        1.0  0.46757  0.35890  0.70871  1.0000
  O   O8        1.0  0.64110  0.10866  0.37537  1.0000
  O   O9        1.0  0.89134  0.53243  0.04204  1.0000
  O   O10       1.0  0.35890  0.46757  0.95797  1.0000
  O   O11       1.0  0.10866  0.64109  0.29130  1.0000
  O   O12       1.0  0.53243  0.89134  0.62464  1.0000
  O   O13       1.0  0.53243  0.64108  0.70870  1.0000
  O   O14       1.0  0.35892  0.89135  0.37536  1.0000
  O   O15       1.0  0.10865  0.46757  0.04203  1.0000
  O   O16       1.0  0.64108  0.53243  0.95798  1.0000
  O   O17       1.0  0.89134  0.35892  0.29131  1.0000
  O   O18       1.0  0.46757  0.10865  0.62465  1.0000
  Si  Si1       1.0  0.28719  0.57439  0.99999  1.0000
  Si  Si2       1.0  0.42561  0.71280  0.66666  1.0000
  Si  Si3       1.0  0.28720  0.71281  0.33332  1.0000
  Si  Si4       1.0  0.57439  0.28719  0.66668  1.0000
  Si  Si5       1.0  0.71280  0.42561  0.00002  1.0000
  Si  Si6       1.0  0.71281  0.28720  0.33335  1.0000
  Si  Si7       1.0  1.00000  0.50000  0.16667  1.0000
  Si  Si8       1.0  0.50000  0.50000  0.83334  1.0000
  Si  Si9       1.0  0.50000  1.00000  0.50000  1.0000
