data_image0
_chemical_formula_structural       O36Si18
_chemical_formula_sum              "O36 Si18"
_cell_length_a       7.37375
_cell_length_b       8.73356
_cell_length_c       17.2542
_cell_angle_alpha    90.0001
_cell_angle_beta     114.166
_cell_angle_gamma    89.9998

_space_group_name_H-M_alt    "P 1"
_space_group_IT_number       1

loop_
  _space_group_symop_operation_xyz
  'x, y, z'

loop_
  _atom_site_type_symbol
  _atom_site_label
  _atom_site_symmetry_multiplicity
  _atom_site_fract_x
  _atom_site_fract_y
  _atom_site_fract_z
  _atom_site_occupancy
  O   O1        1.0  0.12744  0.72074  0.02681  1.0000
  O   O2        1.0  0.87256  0.72074  0.47319  1.0000
  O   O3        1.0  0.87256  0.27926  0.97319  1.0000
  O   O4        1.0  0.12744  0.27926  0.52681  1.0000
  O   O5        1.0  0.00000  1.00000  1.00000  1.0000
  O   O6        1.0  1.00000  0.00000  0.50000  1.0000
  O   O7        1.0  0.81265  0.80182  0.05077  1.0000
  O   O8        1.0  0.18735  0.80182  0.44923  1.0000
  O   O9        1.0  0.18735  0.19818  0.94923  1.0000
  O   O10       1.0  0.81265  0.19818  0.55077  1.0000
  O   O11       1.0  0.79525  0.77997  0.89443  1.0000
  O   O12       1.0  0.20475  0.77997  0.60557  1.0000
  O   O13       1.0  0.20475  0.22003  0.10557  1.0000
  O   O14       1.0  0.79525  0.22003  0.39443  1.0000
  O   O15       1.0  0.72708  0.51341  0.02089  1.0000
  O   O16       1.0  0.27292  0.51341  0.47911  1.0000
  O   O17       1.0  0.27292  0.48659  0.97911  1.0000
  O   O18       1.0  0.72708  0.48659  0.52089  1.0000
  O   O19       1.0  0.48826  0.30604  0.92402  1.0000
  O   O20       1.0  0.51175  0.30604  0.57599  1.0000
  O   O21       1.0  0.51174  0.69396  0.07598  1.0000
  O   O22       1.0  0.48825  0.69396  0.42401  1.0000
  O   O23       1.0  0.68000  0.49075  0.86230  1.0000
  O   O24       1.0  0.31999  0.49075  0.63770  1.0000
  O   O25       1.0  0.32000  0.50925  0.13770  1.0000
  O   O26       1.0  0.68001  0.50925  0.36230  1.0000
  O   O27       1.0  0.13388  0.62099  0.72013  1.0000
  O   O28       1.0  0.86613  0.62099  0.77987  1.0000
  O   O29       1.0  0.86612  0.37901  0.27987  1.0000
  O   O30       1.0  0.13387  0.37901  0.22013  1.0000
  O   O31       1.0  0.50000  0.70520  0.75000  1.0000
  O   O32       1.0  0.50000  0.29480  0.25000  1.0000
  O   O33       1.0  0.13370  0.39668  0.82401  1.0000
  O   O34       1.0  0.86631  0.39669  0.67599  1.0000
  O   O35       1.0  0.86630  0.60332  0.17599  1.0000
  O   O36       1.0  0.13369  0.60331  0.32401  1.0000
  Si  Si1       1.0  0.93254  0.82602  0.99168  1.0000
  Si  Si2       1.0  0.06745  0.82602  0.50832  1.0000
  Si  Si3       1.0  0.06746  0.17398  0.00832  1.0000
  Si  Si4       1.0  0.93255  0.17398  0.49168  1.0000
  Si  Si5       1.0  0.69216  0.39681  0.94443  1.0000
  Si  Si6       1.0  0.30784  0.39681  0.55557  1.0000
  Si  Si7       1.0  0.30784  0.60319  0.05557  1.0000
  Si  Si8       1.0  0.69216  0.60319  0.44443  1.0000
  Si  Si9       1.0  0.28944  0.65029  0.67822  1.0000
  Si  Si10      1.0  0.71056  0.65028  0.82178  1.0000
  Si  Si11      1.0  0.71056  0.34971  0.32178  1.0000
  Si  Si12      1.0  0.28944  0.34972  0.17822  1.0000
  Si  Si13      1.0  0.27041  0.34576  0.91877  1.0000
  Si  Si14      1.0  0.72959  0.34576  0.58123  1.0000
  Si  Si15      1.0  0.72959  0.65424  0.08123  1.0000
  Si  Si16      1.0  0.27041  0.65424  0.41877  1.0000
  Si  Si17      1.0  1.00000  0.48951  0.25000  1.0000
  Si  Si18      1.0  0.00000  0.51049  0.75000  1.0000
