data_image0
_chemical_formula_structural       O20Si10
_chemical_formula_sum              "O20 Si10"
_cell_length_a       7.2071
_cell_length_b       7.2071
_cell_length_c       13.7738
_cell_angle_alpha    89.9999
_cell_angle_beta     90.0002
_cell_angle_gamma    120

_space_group_name_H-M_alt    "P 1"
_space_group_IT_number       1

loop_
  _space_group_symop_operation_xyz
  'x, y, z'

loop_
  _atom_site_type_symbol
  _atom_site_label
  _atom_site_symmetry_multiplicity
  _atom_site_fract_x
  _atom_site_fract_y
  _atom_site_fract_z
  _atom_site_occupancy
  O   O1        1.0  0.87817  0.75643  0.34528  1.0000
  O   O2        1.0  0.24357  0.12174  0.34528  1.0000
  O   O3        1.0  0.87826  0.12183  0.34528  1.0000
  O   O4        1.0  0.12183  0.24357  0.84528  1.0000
  O   O5        1.0  0.75643  0.87826  0.84528  1.0000
  O   O6        1.0  0.12174  0.87817  0.84528  1.0000
  O   O7        1.0  0.12183  0.24357  0.65472  1.0000
  O   O8        1.0  0.75643  0.87826  0.65472  1.0000
  O   O9        1.0  0.12174  0.87817  0.65472  1.0000
  O   O10       1.0  0.87817  0.75643  0.15472  1.0000
  O   O11       1.0  0.24357  0.12174  0.15472  1.0000
  O   O12       1.0  0.87826  0.12183  0.15472  1.0000
  O   O13       1.0  0.54588  0.09171  0.25000  1.0000
  O   O14       1.0  0.90829  0.45417  0.25000  1.0000
  O   O15       1.0  0.54583  0.45412  0.25000  1.0000
  O   O16       1.0  0.45412  0.90829  0.75000  1.0000
  O   O17       1.0  0.09171  0.54583  0.75000  1.0000
  O   O18       1.0  0.45417  0.54588  0.75000  1.0000
  O   O19       1.0  1.00000  0.00000  1.00000  1.0000
  O   O20       1.0  1.00000  0.00000  0.50000  1.0000
  Si  Si1       1.0  0.80348  0.60702  0.25000  1.0000
  Si  Si2       1.0  0.39298  0.19646  0.25000  1.0000
  Si  Si3       1.0  0.80354  0.19652  0.25000  1.0000
  Si  Si4       1.0  0.19652  0.39298  0.75000  1.0000
  Si  Si5       1.0  0.60702  0.80354  0.75000  1.0000
  Si  Si6       1.0  0.19646  0.80348  0.75000  1.0000
  Si  Si7       1.0  0.00000  0.00000  0.38458  1.0000
  Si  Si8       1.0  1.00000  0.00000  0.88458  1.0000
  Si  Si9       1.0  0.00000  0.00000  0.61542  1.0000
  Si  Si10      1.0  0.00000  0.00000  0.11542  1.0000
