data_image0
_chemical_formula_structural       O80Si40
_chemical_formula_sum              "O80 Si40"
_cell_length_a       20.3328
_cell_length_b       12.1019
_cell_length_c       10.2055
_cell_angle_alpha    90.0002
_cell_angle_beta     105.378
_cell_angle_gamma    89.9999

_space_group_name_H-M_alt    "P 1"
_space_group_IT_number       1

loop_
  _space_group_symop_operation_xyz
  'x, y, z'

loop_
  _atom_site_type_symbol
  _atom_site_label
  _atom_site_symmetry_multiplicity
  _atom_site_fract_x
  _atom_site_fract_y
  _atom_site_fract_z
  _atom_site_occupancy
  O   O1        1.0  0.35051  0.80250  0.38338  1.0000
  O   O2        1.0  0.85051  0.30250  0.38338  1.0000
  O   O3        1.0  0.64949  0.80250  0.11661  1.0000
  O   O4        1.0  0.14949  0.30250  0.11661  1.0000
  O   O5        1.0  0.64949  0.19750  0.61662  1.0000
  O   O6        1.0  0.14949  0.69750  0.61662  1.0000
  O   O7        1.0  0.35051  0.19750  0.88339  1.0000
  O   O8        1.0  0.85051  0.69750  0.88339  1.0000
  O   O9        1.0  0.22641  0.88531  0.30695  1.0000
  O   O10       1.0  0.72640  0.38531  0.30695  1.0000
  O   O11       1.0  0.77360  0.88531  0.19305  1.0000
  O   O12       1.0  0.27360  0.38531  0.19305  1.0000
  O   O13       1.0  0.77360  0.11469  0.69305  1.0000
  O   O14       1.0  0.27359  0.61469  0.69305  1.0000
  O   O15       1.0  0.22640  0.11469  0.80695  1.0000
  O   O16       1.0  0.72640  0.61469  0.80695  1.0000
  O   O17       1.0  0.22700  0.12556  0.17866  1.0000
  O   O18       1.0  0.72700  0.62556  0.17866  1.0000
  O   O19       1.0  0.77300  0.12555  0.32134  1.0000
  O   O20       1.0  0.27300  0.62555  0.32134  1.0000
  O   O21       1.0  0.77300  0.87444  0.82134  1.0000
  O   O22       1.0  0.27300  0.37444  0.82134  1.0000
  O   O23       1.0  0.22700  0.87445  0.67866  1.0000
  O   O24       1.0  0.72700  0.37445  0.67866  1.0000
  O   O25       1.0  0.40437  0.39893  0.31760  1.0000
  O   O26       1.0  0.90437  0.89893  0.31760  1.0000
  O   O27       1.0  0.59563  0.39893  0.18240  1.0000
  O   O28       1.0  0.09563  0.89893  0.18240  1.0000
  O   O29       1.0  0.59563  0.60107  0.68240  1.0000
  O   O30       1.0  0.09563  0.10107  0.68240  1.0000
  O   O31       1.0  0.40437  0.60107  0.81760  1.0000
  O   O32       1.0  0.90437  0.10107  0.81760  1.0000
  O   O33       1.0  0.35102  0.20733  0.22607  1.0000
  O   O34       1.0  0.85102  0.70733  0.22607  1.0000
  O   O35       1.0  0.64898  0.20733  0.27393  1.0000
  O   O36       1.0  0.14898  0.70733  0.27393  1.0000
  O   O37       1.0  0.64898  0.79267  0.77393  1.0000
  O   O38       1.0  0.14898  0.29267  0.77393  1.0000
  O   O39       1.0  0.35102  0.79267  0.72607  1.0000
  O   O40       1.0  0.85102  0.29267  0.72607  1.0000
  O   O41       1.0  0.36532  0.36383  0.05584  1.0000
  O   O42       1.0  0.86532  0.86383  0.05584  1.0000
  O   O43       1.0  0.63468  0.36383  0.44416  1.0000
  O   O44       1.0  0.13468  0.86383  0.44416  1.0000
  O   O45       1.0  0.63468  0.63617  0.94416  1.0000
  O   O46       1.0  0.13468  0.13617  0.94416  1.0000
  O   O47       1.0  0.36532  0.63617  0.55584  1.0000
  O   O48       1.0  0.86532  0.13617  0.55584  1.0000
  O   O49       1.0  0.50000  0.50000  1.00000  1.0000
  O   O50       1.0  1.00000  0.00000  1.00000  1.0000
  O   O51       1.0  0.50000  0.50000  0.50000  1.0000
  O   O52       1.0  0.00000  0.00000  0.50000  1.0000
  O   O53       1.0  0.40323  0.38488  0.83142  1.0000
  O   O54       1.0  0.90323  0.88488  0.83142  1.0000
  O   O55       1.0  0.59677  0.38488  0.66858  1.0000
  O   O56       1.0  0.09677  0.88488  0.66858  1.0000
  O   O57       1.0  0.59677  0.61512  0.16858  1.0000
  O   O58       1.0  0.09677  0.11512  0.16858  1.0000
  O   O59       1.0  0.40323  0.61512  0.33142  1.0000
  O   O60       1.0  0.90323  0.11512  0.33142  1.0000
  O   O61       1.0  0.31070  0.05227  0.03960  1.0000
  O   O62       1.0  0.81070  0.55227  0.03960  1.0000
  O   O63       1.0  0.68930  0.05227  0.46040  1.0000
  O   O64       1.0  0.18930  0.55227  0.46040  1.0000
  O   O65       1.0  0.68930  0.94773  0.96040  1.0000
  O   O66       1.0  0.18930  0.44773  0.96040  1.0000
  O   O67       1.0  0.31070  0.94773  0.53960  1.0000
  O   O68       1.0  0.81070  0.44773  0.53960  1.0000
  O   O69       1.0  0.50000  0.48242  0.75000  1.0000
  O   O70       1.0  1.00000  0.98242  0.75000  1.0000
  O   O71       1.0  0.50000  0.51758  0.25000  1.0000
  O   O72       1.0  0.00000  0.01758  0.25000  1.0000
  O   O73       1.0  0.33209  0.00687  0.30285  1.0000
  O   O74       1.0  0.83209  0.50687  0.30285  1.0000
  O   O75       1.0  0.66791  0.00687  0.19715  1.0000
  O   O76       1.0  0.16791  0.50687  0.19715  1.0000
  O   O77       1.0  0.66791  0.99313  0.69715  1.0000
  O   O78       1.0  0.16791  0.49313  0.69715  1.0000
  O   O79       1.0  0.33209  0.99313  0.80285  1.0000
  O   O80       1.0  0.83209  0.49313  0.80285  1.0000
  Si  Si1       1.0  0.30538  0.09732  0.18593  1.0000
  Si  Si2       1.0  0.80538  0.59732  0.18593  1.0000
  Si  Si3       1.0  0.69462  0.09732  0.31407  1.0000
  Si  Si4       1.0  0.19462  0.59732  0.31407  1.0000
  Si  Si5       1.0  0.69462  0.90268  0.81407  1.0000
  Si  Si6       1.0  0.19462  0.40268  0.81407  1.0000
  Si  Si7       1.0  0.30538  0.90268  0.68593  1.0000
  Si  Si8       1.0  0.80538  0.40268  0.68593  1.0000
  Si  Si9       1.0  0.30498  0.91137  0.38425  1.0000
  Si  Si10      1.0  0.80498  0.41137  0.38425  1.0000
  Si  Si11      1.0  0.69502  0.91137  0.11575  1.0000
  Si  Si12      1.0  0.19502  0.41137  0.11575  1.0000
  Si  Si13      1.0  0.69502  0.08863  0.61575  1.0000
  Si  Si14      1.0  0.19502  0.58863  0.61575  1.0000
  Si  Si15      1.0  0.30498  0.08863  0.88425  1.0000
  Si  Si16      1.0  0.80498  0.58863  0.88425  1.0000
  Si  Si17      1.0  0.34851  0.33859  0.19881  1.0000
  Si  Si18      1.0  0.84851  0.83859  0.19881  1.0000
  Si  Si19      1.0  0.65149  0.33859  0.30118  1.0000
  Si  Si20      1.0  0.15149  0.83859  0.30118  1.0000
  Si  Si21      1.0  0.65149  0.66141  0.80119  1.0000
  Si  Si22      1.0  0.15149  0.16141  0.80119  1.0000
  Si  Si23      1.0  0.34851  0.66141  0.69882  1.0000
  Si  Si24      1.0  0.84851  0.16141  0.69882  1.0000
  Si  Si25      1.0  0.34797  0.32980  0.89743  1.0000
  Si  Si26      1.0  0.84797  0.82980  0.89743  1.0000
  Si  Si27      1.0  0.65203  0.32980  0.60257  1.0000
  Si  Si28      1.0  0.15203  0.82980  0.60257  1.0000
  Si  Si29      1.0  0.65203  0.67020  0.10257  1.0000
  Si  Si30      1.0  0.15203  0.17020  0.10257  1.0000
  Si  Si31      1.0  0.34797  0.67020  0.39743  1.0000
  Si  Si32      1.0  0.84797  0.17020  0.39743  1.0000
  Si  Si33      1.0  0.45186  0.49220  0.84953  1.0000
  Si  Si34      1.0  0.95186  0.99220  0.84953  1.0000
  Si  Si35      1.0  0.54814  0.49220  0.65048  1.0000
  Si  Si36      1.0  0.04814  0.99220  0.65048  1.0000
  Si  Si37      1.0  0.54814  0.50780  0.15047  1.0000
  Si  Si38      1.0  0.04814  0.00780  0.15047  1.0000
  Si  Si39      1.0  0.45186  0.50780  0.34952  1.0000
  Si  Si40      1.0  0.95186  0.00780  0.34952  1.0000
