data_image0
_chemical_formula_structural       O24Si12
_chemical_formula_sum              "O24 Si12"
_cell_length_a       9.14774
_cell_length_b       7.47167
_cell_length_c       10.4296
_cell_angle_alpha    89.9999
_cell_angle_beta     108.306
_cell_angle_gamma    89.9998

_space_group_name_H-M_alt    "P 1"
_space_group_IT_number       1

loop_
  _space_group_symop_operation_xyz
  'x, y, z'

loop_
  _atom_site_type_symbol
  _atom_site_label
  _atom_site_symmetry_multiplicity
  _atom_site_fract_x
  _atom_site_fract_y
  _atom_site_fract_z
  _atom_site_occupancy
  O   O1        1.0  0.27934  0.26504  0.44859  1.0000
  O   O2        1.0  0.27934  0.73496  0.44859  1.0000
  O   O3        1.0  0.72066  0.73496  0.55141  1.0000
  O   O4        1.0  0.72066  0.26504  0.55141  1.0000
  O   O5        1.0  0.29445  0.50000  0.26458  1.0000
  O   O6        1.0  0.70555  0.50000  0.73542  1.0000
  O   O7        1.0  0.48962  0.22966  0.32649  1.0000
  O   O8        1.0  0.48962  0.77034  0.32649  1.0000
  O   O9        1.0  0.51038  0.77034  0.67351  1.0000
  O   O10       1.0  0.51038  0.22966  0.67351  1.0000
  O   O11       1.0  0.19759  0.17597  0.19280  1.0000
  O   O12       1.0  0.19759  0.82403  0.19280  1.0000
  O   O13       1.0  0.80241  0.82403  0.80720  1.0000
  O   O14       1.0  0.80241  0.17597  0.80720  1.0000
  O   O15       1.0  0.31719  0.50000  0.64491  1.0000
  O   O16       1.0  0.68281  0.50000  0.35509  1.0000
  O   O17       1.0  0.22624  0.17559  0.67293  1.0000
  O   O18       1.0  0.22624  0.82441  0.67293  1.0000
  O   O19       1.0  0.77376  0.82441  0.32707  1.0000
  O   O20       1.0  0.77376  0.17559  0.32707  1.0000
  O   O21       1.0  0.00000  0.00000  0.50000  1.0000
  O   O22       1.0  0.97165  1.00000  0.24173  1.0000
  O   O23       1.0  0.02834  0.00000  0.75827  1.0000
  O   O24       1.0  0.00000  1.00000  0.00000  1.0000
  Si  Si1       1.0  0.31532  0.29255  0.30778  1.0000
  Si  Si2       1.0  0.31532  0.70745  0.30778  1.0000
  Si  Si3       1.0  0.68468  0.70745  0.69222  1.0000
  Si  Si4       1.0  0.68468  0.29255  0.69222  1.0000
  Si  Si5       1.0  0.33355  0.29257  0.61036  1.0000
  Si  Si6       1.0  0.33355  0.70743  0.61036  1.0000
  Si  Si7       1.0  0.66645  0.70743  0.38964  1.0000
  Si  Si8       1.0  0.66645  0.29257  0.38964  1.0000
  Si  Si9       1.0  0.88099  1.00000  0.34970  1.0000
  Si  Si10      1.0  0.11901  0.00000  0.65030  1.0000
  Si  Si11      1.0  0.09067  1.00000  0.15732  1.0000
  Si  Si12      1.0  0.90933  0.00000  0.84268  1.0000
