data_image0
_chemical_formula_structural       O34Si17
_chemical_formula_sum              "O34 Si17"
_cell_length_a       13.0884
_cell_length_b       13.0884
_cell_length_c       4.98832
_cell_angle_alpha    89.9998
_cell_angle_beta     89.9997
_cell_angle_gamma    89.9999

_space_group_name_H-M_alt    "P 1"
_space_group_IT_number       1

loop_
  _space_group_symop_operation_xyz
  'x, y, z'

loop_
  _atom_site_type_symbol
  _atom_site_label
  _atom_site_symmetry_multiplicity
  _atom_site_fract_x
  _atom_site_fract_y
  _atom_site_fract_z
  _atom_site_occupancy
  O   O1        1.0  0.09788  0.01289  0.69416  1.0000
  O   O2        1.0  0.98711  0.09788  0.30585  1.0000
  O   O3        1.0  0.90212  0.98710  0.69415  1.0000
  O   O4        1.0  0.01290  0.90213  0.30583  1.0000
  O   O5        1.0  0.24545  0.13672  0.53956  1.0000
  O   O6        1.0  0.86328  0.24545  0.46046  1.0000
  O   O7        1.0  0.75454  0.86328  0.53955  1.0000
  O   O8        1.0  0.13673  0.75455  0.46044  1.0000
  O   O9        1.0  0.23435  0.08178  0.03954  1.0000
  O   O10       1.0  0.91821  0.23435  0.96048  1.0000
  O   O11       1.0  0.76565  0.91821  0.03952  1.0000
  O   O12       1.0  0.08178  0.76564  0.96045  1.0000
  O   O13       1.0  0.28739  0.94651  0.67540  1.0000
  O   O14       1.0  0.05349  0.28739  0.32459  1.0000
  O   O15       1.0  0.71261  0.05349  0.67540  1.0000
  O   O16       1.0  0.94651  0.71261  0.32461  1.0000
  O   O17       1.0  0.72164  0.24471  0.83464  1.0000
  O   O18       1.0  0.75529  0.72164  0.16536  1.0000
  O   O19       1.0  0.27835  0.75529  0.83464  1.0000
  O   O20       1.0  0.24471  0.27835  0.16535  1.0000
  O   O21       1.0  0.83486  0.40561  0.77450  1.0000
  O   O22       1.0  0.59438  0.83485  0.22550  1.0000
  O   O23       1.0  0.16515  0.59438  0.77447  1.0000
  O   O24       1.0  0.40561  0.16514  0.22552  1.0000
  O   O25       1.0  0.56471  0.17945  0.54925  1.0000
  O   O26       1.0  0.82056  0.56471  0.45077  1.0000
  O   O27       1.0  0.43529  0.82055  0.54925  1.0000
  O   O28       1.0  0.17945  0.43529  0.45074  1.0000
  O   O29       1.0  0.58823  0.11969  0.04908  1.0000
  O   O30       1.0  0.88031  0.58823  0.95093  1.0000
  O   O31       1.0  0.41176  0.88031  0.04909  1.0000
  O   O32       1.0  0.11969  0.41177  0.95091  1.0000
  O   O33       1.0  0.50000  1.00000  0.39765  1.0000
  O   O34       1.0  0.00000  0.50001  0.60235  1.0000
  Si  Si1       1.0  0.21590  0.04373  0.73634  1.0000
  Si  Si2       1.0  0.95627  0.21590  0.26368  1.0000
  Si  Si3       1.0  0.78410  0.95627  0.73632  1.0000
  Si  Si4       1.0  0.04373  0.78410  0.26366  1.0000
  Si  Si5       1.0  0.83481  0.28307  0.75911  1.0000
  Si  Si6       1.0  0.71692  0.83481  0.24089  1.0000
  Si  Si7       1.0  0.16519  0.71692  0.75909  1.0000
  Si  Si8       1.0  0.28307  0.16519  0.24090  1.0000
  Si  Si9       1.0  0.64636  0.15006  0.77858  1.0000
  Si  Si10      1.0  0.84994  0.64636  0.22143  1.0000
  Si  Si11      1.0  0.35364  0.84994  0.77858  1.0000
  Si  Si12      1.0  0.15006  0.35364  0.22142  1.0000
  Si  Si13      1.0  0.51425  0.11702  0.30445  1.0000
  Si  Si14      1.0  0.88298  0.51425  0.69556  1.0000
  Si  Si15      1.0  0.48575  0.88298  0.30445  1.0000
  Si  Si16      1.0  0.11703  0.48575  0.69555  1.0000
  Si  Si17      1.0  0.00000  1.00000  0.50000  1.0000
