data_image0
_chemical_formula_structural       Si40O80
_chemical_formula_sum              "Si40 O80"
_cell_length_a       11.8335
_cell_length_b       11.8334
_cell_length_c       19.1403
_cell_angle_alpha    90.0015
_cell_angle_beta     90.0021
_cell_angle_gamma    90.0048

_space_group_name_H-M_alt    "P 1"
_space_group_IT_number       1

loop_
  _space_group_symop_operation_xyz
  'x, y, z'

loop_
  _atom_site_type_symbol
  _atom_site_label
  _atom_site_symmetry_multiplicity
  _atom_site_fract_x
  _atom_site_fract_y
  _atom_site_fract_z
  _atom_site_occupancy
  Si  Si1       1.0  0.86952  0.49995  0.19808  1.0000
  Si  Si2       1.0  0.49998  0.86951  0.19808  1.0000
  Si  Si3       1.0  0.13051  0.50001  0.19809  1.0000
  Si  Si4       1.0  0.50004  0.13051  0.19809  1.0000
  Si  Si5       1.0  0.86949  0.49999  0.80191  1.0000
  Si  Si6       1.0  0.13048  0.50005  0.80192  1.0000
  Si  Si7       1.0  0.49996  0.86949  0.80191  1.0000
  Si  Si8       1.0  0.50002  0.13049  0.80192  1.0000
  Si  Si9       1.0  0.31676  0.13307  0.68639  1.0000
  Si  Si10      1.0  0.86701  0.31671  0.68637  1.0000
  Si  Si11      1.0  0.68321  0.86697  0.68638  1.0000
  Si  Si12      1.0  0.13298  0.68329  0.68640  1.0000
  Si  Si13      1.0  0.31673  0.86701  0.31361  1.0000
  Si  Si14      1.0  0.68331  0.13299  0.31363  1.0000
  Si  Si15      1.0  0.13308  0.31677  0.31361  1.0000
  Si  Si16      1.0  0.86698  0.68323  0.31361  1.0000
  Si  Si17      1.0  0.68324  0.86693  0.31361  1.0000
  Si  Si18      1.0  0.13299  0.68329  0.31363  1.0000
  Si  Si19      1.0  0.31679  0.13303  0.31362  1.0000
  Si  Si20      1.0  0.86702  0.31671  0.31360  1.0000
  Si  Si21      1.0  0.68327  0.13299  0.68639  1.0000
  Si  Si22      1.0  0.31669  0.86701  0.68637  1.0000
  Si  Si23      1.0  0.86692  0.68323  0.68639  1.0000
  Si  Si24      1.0  0.13302  0.31677  0.68639  1.0000
  Si  Si25      1.0  0.68544  0.50005  0.08034  1.0000
  Si  Si26      1.0  0.50005  0.68544  0.08033  1.0000
  Si  Si27      1.0  0.31459  0.49998  0.08034  1.0000
  Si  Si28      1.0  0.49998  0.31460  0.08035  1.0000
  Si  Si29      1.0  0.68541  0.50002  0.91966  1.0000
  Si  Si30      1.0  0.31456  0.49995  0.91966  1.0000
  Si  Si31      1.0  0.50002  0.68540  0.91965  1.0000
  Si  Si32      1.0  0.49995  0.31456  0.91967  1.0000
  Si  Si33      1.0  0.86416  0.49997  0.57809  1.0000
  Si  Si34      1.0  0.49993  0.86417  0.57809  1.0000
  Si  Si35      1.0  0.13583  0.50003  0.57810  1.0000
  Si  Si36      1.0  0.50000  0.13584  0.57810  1.0000
  Si  Si37      1.0  0.86417  0.49997  0.42190  1.0000
  Si  Si38      1.0  0.13584  0.50003  0.42191  1.0000
  Si  Si39      1.0  0.50000  0.86416  0.42190  1.0000
  Si  Si40      1.0  0.50007  0.13583  0.42191  1.0000
  O   O1        1.0  0.84300  0.61160  0.24346  1.0000
  O   O2        1.0  0.38832  0.84297  0.24345  1.0000
  O   O3        1.0  0.15727  0.38843  0.24349  1.0000
  O   O4        1.0  0.61162  0.15718  0.24353  1.0000
  O   O5        1.0  0.84299  0.38833  0.75651  1.0000
  O   O6        1.0  0.15719  0.61163  0.75650  1.0000
  O   O7        1.0  0.61163  0.84294  0.75654  1.0000
  O   O8        1.0  0.38844  0.15720  0.75650  1.0000
  O   O9        1.0  0.15700  0.38840  0.75654  1.0000
  O   O10       1.0  0.61168  0.15703  0.75655  1.0000
  O   O11       1.0  0.84273  0.61157  0.75651  1.0000
  O   O12       1.0  0.38838  0.84282  0.75647  1.0000
  O   O13       1.0  0.15701  0.61167  0.24349  1.0000
  O   O14       1.0  0.84281  0.38837  0.24350  1.0000
  O   O15       1.0  0.38837  0.15706  0.24346  1.0000
  O   O16       1.0  0.61156  0.84280  0.24350  1.0000
  O   O17       1.0  0.79430  0.49996  0.12914  1.0000
  O   O18       1.0  0.49994  0.79430  0.12913  1.0000
  O   O19       1.0  0.20573  0.50010  0.12915  1.0000
  O   O20       1.0  0.50008  0.20575  0.12916  1.0000
  O   O21       1.0  0.79427  0.49990  0.87085  1.0000
  O   O22       1.0  0.20570  0.50004  0.87086  1.0000
  O   O23       1.0  0.49992  0.79425  0.87084  1.0000
  O   O24       1.0  0.50006  0.20570  0.87087  1.0000
  O   O25       1.0  0.00001  0.49983  0.17500  1.0000
  O   O26       1.0  0.50012  0.00001  0.17500  1.0000
  O   O27       1.0  0.99999  0.50017  0.82500  1.0000
  O   O28       1.0  0.49988  0.99999  0.82500  1.0000
  O   O29       1.0  0.19940  0.19942  0.69018  1.0000
  O   O30       1.0  0.80065  0.19934  0.69017  1.0000
  O   O31       1.0  0.80057  0.80061  0.69015  1.0000
  O   O32       1.0  0.19928  0.80071  0.69016  1.0000
  O   O33       1.0  0.19935  0.80066  0.30983  1.0000
  O   O34       1.0  0.80072  0.19929  0.30984  1.0000
  O   O35       1.0  0.19943  0.19939  0.30985  1.0000
  O   O36       1.0  0.80060  0.80058  0.30982  1.0000
  O   O37       1.0  0.38803  0.17580  0.61927  1.0000
  O   O38       1.0  0.82416  0.38803  0.61929  1.0000
  O   O39       1.0  0.61183  0.82415  0.61932  1.0000
  O   O40       1.0  0.17574  0.61204  0.61927  1.0000
  O   O41       1.0  0.38807  0.82418  0.38068  1.0000
  O   O42       1.0  0.61207  0.17576  0.38076  1.0000
  O   O43       1.0  0.17581  0.38806  0.38073  1.0000
  O   O44       1.0  0.82415  0.61188  0.38068  1.0000
  O   O45       1.0  0.61197  0.82420  0.38073  1.0000
  O   O46       1.0  0.17584  0.61197  0.38071  1.0000
  O   O47       1.0  0.38817  0.17585  0.38068  1.0000
  O   O48       1.0  0.82426  0.38796  0.38073  1.0000
  O   O49       1.0  0.61193  0.17582  0.61932  1.0000
  O   O50       1.0  0.38793  0.82424  0.61924  1.0000
  O   O51       1.0  0.82419  0.61194  0.61927  1.0000
  O   O52       1.0  0.17585  0.38812  0.61932  1.0000
  O   O53       1.0  0.29082  0.00005  0.67968  1.0000
  O   O54       1.0  0.00002  0.29079  0.67956  1.0000
  O   O55       1.0  0.70918  0.99998  0.67960  1.0000
  O   O56       1.0  0.99995  0.70914  0.67969  1.0000
  O   O57       1.0  0.29082  0.00002  0.32040  1.0000
  O   O58       1.0  0.70918  0.99995  0.32032  1.0000
  O   O59       1.0  0.00005  0.29086  0.32031  1.0000
  O   O60       1.0  0.99998  0.70921  0.32044  1.0000
  O   O61       1.0  0.61125  0.61125  0.09616  1.0000
  O   O62       1.0  0.38864  0.61138  0.09587  1.0000
  O   O63       1.0  0.38877  0.38878  0.09618  1.0000
  O   O64       1.0  0.61138  0.38866  0.09588  1.0000
  O   O65       1.0  0.61136  0.38862  0.90413  1.0000
  O   O66       1.0  0.38862  0.61134  0.90412  1.0000
  O   O67       1.0  0.61123  0.61122  0.90382  1.0000
  O   O68       1.0  0.38875  0.38875  0.90384  1.0000
  O   O69       1.0  0.72569  0.50034  1.00000  1.0000
  O   O70       1.0  0.50034  0.72569  0.99999  1.0000
  O   O71       1.0  0.27431  0.49966  0.00000  1.0000
  O   O72       1.0  0.49966  0.27431  0.00001  1.0000
  O   O73       1.0  0.81392  0.49997  0.49999  1.0000
  O   O74       1.0  0.49996  0.81391  0.50000  1.0000
  O   O75       1.0  0.18608  0.50003  0.50001  1.0000
  O   O76       1.0  0.50004  0.18609  0.50000  1.0000
  O   O77       1.0  0.99999  0.49996  0.57493  1.0000
  O   O78       1.0  0.50001  0.00000  0.57494  1.0000
  O   O79       1.0  0.00001  0.50004  0.42507  1.0000
  O   O80       1.0  0.49999  1.00000  0.42506  1.0000
