data_image0
_chemical_formula_structural       O32Si16
_chemical_formula_sum              "O32 Si16"
_cell_length_a       12.3309
_cell_length_b       12.3309
_cell_length_c       8.63708
_cell_angle_alpha    90.0001
_cell_angle_beta     89.9997
_cell_angle_gamma    120

_space_group_name_H-M_alt    "P 1"
_space_group_IT_number       1

loop_
  _space_group_symop_operation_xyz
  'x, y, z'

loop_
  _atom_site_type_symbol
  _atom_site_label
  _atom_site_symmetry_multiplicity
  _atom_site_fract_x
  _atom_site_fract_y
  _atom_site_fract_z
  _atom_site_occupancy
  O   O1        1.0  0.30151  0.77190  0.24561  1.0000
  O   O2        1.0  0.22810  0.52961  0.24560  1.0000
  O   O3        1.0  0.47039  0.69849  0.24560  1.0000
  O   O4        1.0  0.77190  0.30151  0.24561  1.0000
  O   O5        1.0  0.52960  0.22810  0.24559  1.0000
  O   O6        1.0  0.69849  0.47039  0.24560  1.0000
  O   O7        1.0  0.69849  0.22810  0.75439  1.0000
  O   O8        1.0  0.77190  0.47039  0.75440  1.0000
  O   O9        1.0  0.52961  0.30151  0.75440  1.0000
  O   O10       1.0  0.22810  0.69849  0.75439  1.0000
  O   O11       1.0  0.47040  0.77190  0.75441  1.0000
  O   O12       1.0  0.30151  0.52961  0.75440  1.0000
  O   O13       1.0  0.36384  0.00000  0.34207  1.0000
  O   O14       1.0  0.00000  0.36384  0.34207  1.0000
  O   O15       1.0  0.63617  0.63617  0.34207  1.0000
  O   O16       1.0  0.63616  1.00000  0.65793  1.0000
  O   O17       1.0  1.00000  0.63616  0.65793  1.0000
  O   O18       1.0  0.36383  0.36383  0.65793  1.0000
  O   O19       1.0  0.19709  0.80290  0.50000  1.0000
  O   O20       1.0  0.19710  0.39420  0.50000  1.0000
  O   O21       1.0  0.60580  0.80290  0.50000  1.0000
  O   O22       1.0  0.80291  0.19710  0.50000  1.0000
  O   O23       1.0  0.39420  0.19710  0.50000  1.0000
  O   O24       1.0  0.80290  0.60580  0.50000  1.0000
  O   O25       1.0  0.42910  0.85822  0.50001  1.0000
  O   O26       1.0  0.14177  0.57089  0.49999  1.0000
  O   O27       1.0  0.42911  0.57089  0.50000  1.0000
  O   O28       1.0  0.85823  0.42911  0.50001  1.0000
  O   O29       1.0  0.57090  0.14178  0.49999  1.0000
  O   O30       1.0  0.57089  0.42911  0.50000  1.0000
  O   O31       1.0  0.66667  0.33333  1.00000  1.0000
  O   O32       1.0  0.33333  0.66667  0.00000  1.0000
  Si  Si1       1.0  0.32214  0.85924  0.39445  1.0000
  Si  Si2       1.0  0.14076  0.46290  0.39444  1.0000
  Si  Si3       1.0  0.53710  0.67786  0.39444  1.0000
  Si  Si4       1.0  0.85924  0.32214  0.39444  1.0000
  Si  Si5       1.0  0.46290  0.14076  0.39444  1.0000
  Si  Si6       1.0  0.67786  0.53710  0.39444  1.0000
  Si  Si7       1.0  0.67786  0.14076  0.60555  1.0000
  Si  Si8       1.0  0.85924  0.53710  0.60556  1.0000
  Si  Si9       1.0  0.46290  0.32214  0.60556  1.0000
  Si  Si10      1.0  0.14076  0.67786  0.60556  1.0000
  Si  Si11      1.0  0.53710  0.85924  0.60556  1.0000
  Si  Si12      1.0  0.32214  0.46290  0.60556  1.0000
  Si  Si13      1.0  0.66667  0.33333  0.18428  1.0000
  Si  Si14      1.0  0.33333  0.66667  0.18428  1.0000
  Si  Si15      1.0  0.33333  0.66667  0.81572  1.0000
  Si  Si16      1.0  0.66667  0.33333  0.81572  1.0000
