data_image0
_chemical_formula_structural       O40Si20
_chemical_formula_sum              "O40 Si20"
_cell_length_a       8.41117
_cell_length_b       8.41117
_cell_length_c       14.0829
_cell_angle_alpha    90
_cell_angle_beta     90
_cell_angle_gamma    89.9999

_space_group_name_H-M_alt    "P 1"
_space_group_IT_number       1

loop_
  _space_group_symop_operation_xyz
  'x, y, z'

loop_
  _atom_site_type_symbol
  _atom_site_label
  _atom_site_symmetry_multiplicity
  _atom_site_fract_x
  _atom_site_fract_y
  _atom_site_fract_z
  _atom_site_occupancy
  O   O1        1.0  0.11039  0.61030  0.31686  1.0000
  O   O2        1.0  0.38970  0.11040  0.31685  1.0000
  O   O3        1.0  0.88960  0.38971  0.31685  1.0000
  O   O4        1.0  0.61029  0.88960  0.31685  1.0000
  O   O5        1.0  0.88960  0.61029  0.81685  1.0000
  O   O6        1.0  0.61030  0.11039  0.81685  1.0000
  O   O7        1.0  0.11039  0.38970  0.81685  1.0000
  O   O8        1.0  0.38971  0.88960  0.81685  1.0000
  O   O9        1.0  0.88961  0.38970  0.68314  1.0000
  O   O10       1.0  0.61030  0.88960  0.68315  1.0000
  O   O11       1.0  0.11040  0.61029  0.68315  1.0000
  O   O12       1.0  0.38971  0.11040  0.68315  1.0000
  O   O13       1.0  0.11040  0.38971  0.18315  1.0000
  O   O14       1.0  0.38970  0.88961  0.18315  1.0000
  O   O15       1.0  0.88961  0.61030  0.18315  1.0000
  O   O16       1.0  0.61029  0.11040  0.18315  1.0000
  O   O17       1.0  0.17685  0.40488  0.00000  1.0000
  O   O18       1.0  0.59513  0.17685  0.00000  1.0000
  O   O19       1.0  0.82315  0.59512  1.00000  1.0000
  O   O20       1.0  0.40487  0.82315  1.00000  1.0000
  O   O21       1.0  0.82314  0.40486  0.50000  1.0000
  O   O22       1.0  0.40488  0.17685  0.50000  1.0000
  O   O23       1.0  0.17686  0.59514  0.50000  1.0000
  O   O24       1.0  0.59512  0.82315  0.50000  1.0000
  O   O25       1.0  0.39435  0.30644  0.12120  1.0000
  O   O26       1.0  0.69356  0.39435  0.12120  1.0000
  O   O27       1.0  0.60565  0.69357  0.12120  1.0000
  O   O28       1.0  0.30644  0.60565  0.12120  1.0000
  O   O29       1.0  0.60564  0.30645  0.62121  1.0000
  O   O30       1.0  0.30643  0.39434  0.62119  1.0000
  O   O31       1.0  0.39436  0.69355  0.62121  1.0000
  O   O32       1.0  0.69358  0.60566  0.62119  1.0000
  O   O33       1.0  0.60565  0.69356  0.87880  1.0000
  O   O34       1.0  0.30644  0.60565  0.87880  1.0000
  O   O35       1.0  0.39435  0.30643  0.87880  1.0000
  O   O36       1.0  0.69356  0.39435  0.87880  1.0000
  O   O37       1.0  0.39436  0.69355  0.37879  1.0000
  O   O38       1.0  0.69357  0.60566  0.37881  1.0000
  O   O39       1.0  0.60564  0.30645  0.37879  1.0000
  O   O40       1.0  0.30642  0.39434  0.37881  1.0000
  Si  Si1       1.0  0.24664  0.42498  0.10625  1.0000
  Si  Si2       1.0  0.57503  0.24664  0.10625  1.0000
  Si  Si3       1.0  0.75336  0.57503  0.10625  1.0000
  Si  Si4       1.0  0.42497  0.75336  0.10625  1.0000
  Si  Si5       1.0  0.75336  0.42498  0.60625  1.0000
  Si  Si6       1.0  0.42497  0.24664  0.60625  1.0000
  Si  Si7       1.0  0.24664  0.57502  0.60625  1.0000
  Si  Si8       1.0  0.57503  0.75336  0.60625  1.0000
  Si  Si9       1.0  0.75336  0.57502  0.89375  1.0000
  Si  Si10      1.0  0.42497  0.75336  0.89375  1.0000
  Si  Si11      1.0  0.24664  0.42497  0.89375  1.0000
  Si  Si12      1.0  0.57503  0.24664  0.89375  1.0000
  Si  Si13      1.0  0.24664  0.57502  0.39375  1.0000
  Si  Si14      1.0  0.57503  0.75336  0.39375  1.0000
  Si  Si15      1.0  0.75336  0.42498  0.39375  1.0000
  Si  Si16      1.0  0.42497  0.24664  0.39375  1.0000
  Si  Si17      1.0  1.00000  0.50000  0.25000  1.0000
  Si  Si18      1.0  0.50000  0.00000  0.25000  1.0000
  Si  Si19      1.0  0.00000  0.50000  0.75000  1.0000
  Si  Si20      1.0  0.50000  1.00000  0.75000  1.0000
