data_image0
_chemical_formula_structural       O24Si12
_chemical_formula_sum              "O24 Si12"
_cell_length_a       9.88833
_cell_length_b       7.47701
_cell_length_c       9.39214
_cell_angle_alpha    90.0003
_cell_angle_beta     90.0002
_cell_angle_gamma    90

_space_group_name_H-M_alt    "P 1"
_space_group_IT_number       1

loop_
  _space_group_symop_operation_xyz
  'x, y, z'

loop_
  _atom_site_type_symbol
  _atom_site_label
  _atom_site_symmetry_multiplicity
  _atom_site_fract_x
  _atom_site_fract_y
  _atom_site_fract_z
  _atom_site_occupancy
  O   O1        1.0  0.05889  0.32351  0.23057  1.0000
  O   O2        1.0  0.44111  0.32351  0.23057  1.0000
  O   O3        1.0  0.05889  0.67649  0.23057  1.0000
  O   O4        1.0  0.44111  0.67649  0.23057  1.0000
  O   O5        1.0  0.94111  0.67649  0.76943  1.0000
  O   O6        1.0  0.55889  0.67649  0.76943  1.0000
  O   O7        1.0  0.94111  0.32351  0.76943  1.0000
  O   O8        1.0  0.55889  0.32351  0.76943  1.0000
  O   O9        1.0  0.25000  0.23593  0.41270  1.0000
  O   O10       1.0  0.25000  0.76407  0.41270  1.0000
  O   O11       1.0  0.75000  0.76407  0.58730  1.0000
  O   O12       1.0  0.75000  0.23593  0.58730  1.0000
  O   O13       1.0  0.06608  1.00000  0.33482  1.0000
  O   O14       1.0  0.43392  1.00000  0.33482  1.0000
  O   O15       1.0  0.93392  0.00000  0.66518  1.0000
  O   O16       1.0  0.56608  0.00000  0.66518  1.0000
  O   O17       1.0  0.00000  0.27214  0.50000  1.0000
  O   O18       1.0  0.50000  0.27214  0.50000  1.0000
  O   O19       1.0  1.00000  0.72786  0.50000  1.0000
  O   O20       1.0  0.50000  0.72786  0.50000  1.0000
  O   O21       1.0  1.00000  0.50000  0.00000  1.0000
  O   O22       1.0  0.50000  0.50000  0.00000  1.0000
  O   O23       1.0  0.25000  0.50000  0.09430  1.0000
  O   O24       1.0  0.75000  0.50000  0.90570  1.0000
  Si  Si1       1.0  0.09346  0.20777  0.36970  1.0000
  Si  Si2       1.0  0.40654  0.20777  0.36970  1.0000
  Si  Si3       1.0  0.09346  0.79223  0.36970  1.0000
  Si  Si4       1.0  0.40654  0.79223  0.36970  1.0000
  Si  Si5       1.0  0.90654  0.79223  0.63030  1.0000
  Si  Si6       1.0  0.59346  0.79223  0.63030  1.0000
  Si  Si7       1.0  0.90654  0.20777  0.63030  1.0000
  Si  Si8       1.0  0.59346  0.20777  0.63030  1.0000
  Si  Si9       1.0  0.09239  0.50000  0.13860  1.0000
  Si  Si10      1.0  0.40761  0.50000  0.13860  1.0000
  Si  Si11      1.0  0.90761  0.50000  0.86140  1.0000
  Si  Si12      1.0  0.59239  0.50000  0.86140  1.0000
