data_image0
_chemical_formula_structural       O24Si12
_chemical_formula_sum              "O24 Si12"
_cell_length_a       12.3684
_cell_length_b       12.3683
_cell_length_c       5.24613
_cell_angle_alpha    89.9999
_cell_angle_beta     90.0001
_cell_angle_gamma    120

_space_group_name_H-M_alt    "P 1"
_space_group_IT_number       1

loop_
  _space_group_symop_operation_xyz
  'x, y, z'

loop_
  _atom_site_type_symbol
  _atom_site_label
  _atom_site_symmetry_multiplicity
  _atom_site_fract_x
  _atom_site_fract_y
  _atom_site_fract_z
  _atom_site_occupancy
  O   O1        1.0  0.99998  0.33548  0.50000  1.0000
  O   O2        1.0  0.66445  0.66441  0.50005  1.0000
  O   O3        1.0  0.33558  0.99999  0.49996  1.0000
  O   O4        1.0  0.00002  0.66441  0.00001  1.0000
  O   O5        1.0  0.33553  0.33552  0.99996  1.0000
  O   O6        1.0  0.66447  0.99997  0.00005  1.0000
  O   O7        1.0  0.66442  0.00001  0.50004  1.0000
  O   O8        1.0  0.33555  0.33559  0.49995  1.0000
  O   O9        1.0  0.00002  0.66452  0.50000  1.0000
  O   O10       1.0  0.33553  0.00003  0.99995  1.0000
  O   O11       1.0  0.66447  0.66448  0.00004  1.0000
  O   O12       1.0  0.99998  0.33559  0.99999  1.0000
  O   O13       1.0  0.20956  0.41915  0.75003  1.0000
  O   O14       1.0  0.58086  0.79042  0.74994  1.0000
  O   O15       1.0  0.20959  0.79043  0.75003  1.0000
  O   O16       1.0  0.79044  0.58085  0.24997  1.0000
  O   O17       1.0  0.41914  0.20958  0.25006  1.0000
  O   O18       1.0  0.79041  0.20957  0.24997  1.0000
  O   O19       1.0  0.09674  0.54837  0.74981  1.0000
  O   O20       1.0  0.45163  0.54837  0.75008  1.0000
  O   O21       1.0  0.45163  0.90325  0.75012  1.0000
  O   O22       1.0  0.90326  0.45163  0.25019  1.0000
  O   O23       1.0  0.54837  0.45163  0.24993  1.0000
  O   O24       1.0  0.54837  0.09675  0.24988  1.0000
  Si  Si1       1.0  0.07607  0.40940  0.74996  1.0000
  Si  Si2       1.0  0.59060  0.66668  0.75003  1.0000
  Si  Si3       1.0  0.33332  0.92392  0.75001  1.0000
  Si  Si4       1.0  0.92393  0.59060  0.25004  1.0000
  Si  Si5       1.0  0.40940  0.33332  0.24997  1.0000
  Si  Si6       1.0  0.66668  0.07608  0.24999  1.0000
  Si  Si7       1.0  0.59060  0.92390  0.75004  1.0000
  Si  Si8       1.0  0.33330  0.40941  0.75000  1.0000
  Si  Si9       1.0  0.07610  0.66669  0.74996  1.0000
  Si  Si10      1.0  0.40940  0.07610  0.24996  1.0000
  Si  Si11      1.0  0.66670  0.59059  0.25000  1.0000
  Si  Si12      1.0  0.92390  0.33331  0.25004  1.0000
