data_image0
_chemical_formula_structural       O256Si128
_chemical_formula_sum              "O256 Si128"
_cell_length_a       10.1891
_cell_length_b       27.6161
_cell_length_c       27.1732
_cell_angle_alpha    90.0767
_cell_angle_beta     89.6466
_cell_angle_gamma    90.5862

_space_group_name_H-M_alt    "P 1"
_space_group_IT_number       1

loop_
  _space_group_symop_operation_xyz
  'x, y, z'

loop_
  _atom_site_type_symbol
  _atom_site_label
  _atom_site_symmetry_multiplicity
  _atom_site_fract_x
  _atom_site_fract_y
  _atom_site_fract_z
  _atom_site_occupancy
  O   O1        1.0  0.10333  0.24837  0.09409  1.0000
  O   O2        1.0  0.14913  0.73901  0.91753  1.0000
  O   O3        1.0  0.10900  0.24437  0.40578  1.0000
  O   O4        1.0  0.14166  0.74042  0.58710  1.0000
  O   O5        1.0  0.89871  0.75332  0.90645  1.0000
  O   O6        1.0  0.85290  0.26200  0.08285  1.0000
  O   O7        1.0  0.89147  0.75371  0.59496  1.0000
  O   O8        1.0  0.85903  0.25694  0.41579  1.0000
  O   O9        1.0  0.60323  0.74836  0.09406  1.0000
  O   O10       1.0  0.64909  0.23900  0.91757  1.0000
  O   O11       1.0  0.60898  0.74439  0.40586  1.0000
  O   O12       1.0  0.64178  0.24052  0.58696  1.0000
  O   O13       1.0  0.39867  0.25333  0.90648  1.0000
  O   O14       1.0  0.35278  0.76200  0.08290  1.0000
  O   O15       1.0  0.39164  0.25383  0.59496  1.0000
  O   O16       1.0  0.35895  0.75712  0.41557  1.0000
  O   O17       1.0  0.24996  0.17763  0.06118  1.0000
  O   O18       1.0  0.23512  0.82638  0.93633  1.0000
  O   O19       1.0  0.25038  0.16606  0.41768  1.0000
  O   O20       1.0  0.22397  0.83043  0.58043  1.0000
  O   O21       1.0  0.75093  0.82393  0.93890  1.0000
  O   O22       1.0  0.76509  0.17497  0.06354  1.0000
  O   O23       1.0  0.74737  0.83076  0.58082  1.0000
  O   O24       1.0  0.77393  0.16704  0.41952  1.0000
  O   O25       1.0  0.74990  0.67755  0.06131  1.0000
  O   O26       1.0  0.73504  0.32639  0.93628  1.0000
  O   O27       1.0  0.75012  0.66604  0.41775  1.0000
  O   O28       1.0  0.72438  0.33052  0.58046  1.0000
  O   O29       1.0  0.25075  0.32385  0.93905  1.0000
  O   O30       1.0  0.26509  0.67497  0.06353  1.0000
  O   O31       1.0  0.24683  0.33071  0.58083  1.0000
  O   O32       1.0  0.27447  0.66715  0.41957  1.0000
  O   O33       1.0  0.35169  0.26349  0.07461  1.0000
  O   O34       1.0  0.40191  0.75703  0.91711  1.0000
  O   O35       1.0  0.35710  0.25265  0.42642  1.0000
  O   O36       1.0  0.39132  0.75814  0.57943  1.0000
  O   O37       1.0  0.65008  0.73796  0.92553  1.0000
  O   O38       1.0  0.59993  0.24466  0.08357  1.0000
  O   O39       1.0  0.64240  0.74367  0.57690  1.0000
  O   O40       1.0  0.60869  0.23994  0.42096  1.0000
  O   O41       1.0  0.85158  0.76344  0.07456  1.0000
  O   O42       1.0  0.90186  0.25705  0.91715  1.0000
  O   O43       1.0  0.85710  0.75258  0.42653  1.0000
  O   O44       1.0  0.89148  0.25816  0.57933  1.0000
  O   O45       1.0  0.15002  0.23789  0.92545  1.0000
  O   O46       1.0  0.09982  0.74464  0.08355  1.0000
  O   O47       1.0  0.14250  0.24350  0.57715  1.0000
  O   O48       1.0  0.10870  0.73989  0.42099  1.0000
  O   O49       1.0  0.27830  0.21122  0.15146  1.0000
  O   O50       1.0  0.25467  0.79140  0.84679  1.0000
  O   O51       1.0  0.27771  0.21923  0.33927  1.0000
  O   O52       1.0  0.26552  0.78262  0.66047  1.0000
  O   O53       1.0  0.72445  0.79017  0.84864  1.0000
  O   O54       1.0  0.74711  0.20920  0.15338  1.0000
  O   O55       1.0  0.72541  0.78127  0.66168  1.0000
  O   O56       1.0  0.73794  0.21671  0.34035  1.0000
  O   O57       1.0  0.77810  0.71131  0.15151  1.0000
  O   O58       1.0  0.75460  0.29132  0.84678  1.0000
  O   O59       1.0  0.77764  0.71923  0.33936  1.0000
  O   O60       1.0  0.76569  0.28254  0.66042  1.0000
  O   O61       1.0  0.22444  0.29026  0.84870  1.0000
  O   O62       1.0  0.24684  0.70915  0.15338  1.0000
  O   O63       1.0  0.22575  0.28131  0.66178  1.0000
  O   O64       1.0  0.23774  0.71666  0.34032  1.0000
  O   O65       1.0  0.33424  0.99607  0.07383  1.0000
  O   O66       1.0  0.41313  0.99882  0.90909  1.0000
  O   O67       1.0  0.39484  0.99870  0.40931  1.0000
  O   O68       1.0  0.34950  0.01268  0.57719  1.0000
  O   O69       1.0  0.66500  0.00499  0.92636  1.0000
  O   O70       1.0  0.58639  0.00285  0.09026  1.0000
  O   O71       1.0  0.60027  0.99654  0.58520  1.0000
  O   O72       1.0  0.64569  0.98572  0.42129  1.0000
  O   O73       1.0  0.83359  0.49582  0.07407  1.0000
  O   O74       1.0  0.91259  0.49901  0.90889  1.0000
  O   O75       1.0  0.89467  0.49870  0.40928  1.0000
  O   O76       1.0  0.84942  0.51275  0.57729  1.0000
  O   O77       1.0  0.16432  0.50473  0.92660  1.0000
  O   O78       1.0  0.08586  0.50302  0.09006  1.0000
  O   O79       1.0  0.10013  0.49646  0.58515  1.0000
  O   O80       1.0  0.14554  0.48581  0.42138  1.0000
  O   O81       1.0  0.24140  0.08472  0.07980  1.0000
  O   O82       1.0  0.27110  0.91932  0.92021  1.0000
  O   O83       1.0  0.24843  0.07273  0.43608  1.0000
  O   O84       1.0  0.27077  0.92298  0.56494  1.0000
  O   O85       1.0  0.76022  0.91679  0.92007  1.0000
  O   O86       1.0  0.73027  0.08198  0.07986  1.0000
  O   O87       1.0  0.75884  0.92409  0.56573  1.0000
  O   O88       1.0  0.72695  0.07472  0.43593  1.0000
  O   O89       1.0  0.74152  0.58461  0.07972  1.0000
  O   O90       1.0  0.77144  0.41932  0.92017  1.0000
  O   O91       1.0  0.74824  0.57270  0.43612  1.0000
  O   O92       1.0  0.77090  0.42306  0.56478  1.0000
  O   O93       1.0  0.26039  0.41668  0.91999  1.0000
  O   O94       1.0  0.23050  0.58196  0.07981  1.0000
  O   O95       1.0  0.25882  0.42403  0.56578  1.0000
  O   O96       1.0  0.22713  0.57482  0.43579  1.0000
  O   O97       1.0  0.08685  0.00920  0.09162  1.0000
  O   O98       1.0  0.16061  0.00465  0.92300  1.0000
  O   O99       1.0  0.14101  0.98961  0.41683  1.0000
  O   O100      1.0  0.10151  0.99106  0.58756  1.0000
  O   O101      1.0  0.91240  0.99290  0.90787  1.0000
  O   O102      1.0  0.83892  0.99633  0.07672  1.0000
  O   O103      1.0  0.85434  0.00989  0.58080  1.0000
  O   O104      1.0  0.89363  0.00612  0.41211  1.0000
  O   O105      1.0  0.58623  0.50931  0.09161  1.0000
  O   O106      1.0  0.66008  0.50448  0.92299  1.0000
  O   O107      1.0  0.64085  0.48959  0.41687  1.0000
  O   O108      1.0  0.60141  0.49102  0.58748  1.0000
  O   O109      1.0  0.41175  0.49303  0.90787  1.0000
  O   O110      1.0  0.33839  0.49618  0.07672  1.0000
  O   O111      1.0  0.35420  0.50987  0.58084  1.0000
  O   O112      1.0  0.39348  0.50609  0.41203  1.0000
  O   O113      1.0  0.26232  0.03344  0.15910  1.0000
  O   O114      1.0  0.26003  0.96844  0.83937  1.0000
  O   O115      1.0  0.25113  0.04149  0.34459  1.0000
  O   O116      1.0  0.26913  0.96167  0.65335  1.0000
  O   O117      1.0  0.73650  0.96819  0.84077  1.0000
  O   O118      1.0  0.73936  0.03226  0.16045  1.0000
  O   O119      1.0  0.74391  0.96071  0.65475  1.0000
  O   O120      1.0  0.72958  0.03821  0.34651  1.0000
  O   O121      1.0  0.76158  0.53350  0.15916  1.0000
  O   O122      1.0  0.75947  0.46834  0.83931  1.0000
  O   O123      1.0  0.75080  0.54149  0.34461  1.0000
  O   O124      1.0  0.76887  0.46155  0.65328  1.0000
  O   O125      1.0  0.23580  0.46826  0.84084  1.0000
  O   O126      1.0  0.23874  0.53219  0.16039  1.0000
  O   O127      1.0  0.24370  0.46073  0.65478  1.0000
  O   O128      1.0  0.22926  0.53813  0.34645  1.0000
  O   O129      1.0  0.06801  0.12291  0.02076  1.0000
  O   O130      1.0  0.18430  0.88833  0.00526  1.0000
  O   O131      1.0  0.17297  0.13383  0.50337  1.0000
  O   O132      1.0  0.07714  0.87857  0.51980  1.0000
  O   O133      1.0  0.93263  0.87859  0.97950  1.0000
  O   O134      1.0  0.81660  0.11297  0.99473  1.0000
  O   O135      1.0  0.82617  0.86479  0.49585  1.0000
  O   O136      1.0  0.92229  0.11924  0.48000  1.0000
  O   O137      1.0  0.56802  0.62290  0.02077  1.0000
  O   O138      1.0  0.68426  0.38836  0.00520  1.0000
  O   O139      1.0  0.67305  0.63377  0.50348  1.0000
  O   O140      1.0  0.57716  0.37853  0.51983  1.0000
  O   O141      1.0  0.43259  0.37855  0.97952  1.0000
  O   O142      1.0  0.31661  0.61301  0.99468  1.0000
  O   O143      1.0  0.32618  0.36471  0.49593  1.0000
  O   O144      1.0  0.42238  0.61921  0.48006  1.0000
  O   O145      1.0  0.32023  0.11575  0.99416  1.0000
  O   O146      1.0  0.43277  0.87272  0.97686  1.0000
  O   O147      1.0  0.42489  0.12813  0.47635  1.0000
  O   O148      1.0  0.32701  0.85952  0.49740  1.0000
  O   O149      1.0  0.68017  0.88584  0.00575  1.0000
  O   O150      1.0  0.56793  0.12828  0.02314  1.0000
  O   O151      1.0  0.57553  0.87235  0.52388  1.0000
  O   O152      1.0  0.67344  0.13871  0.50334  1.0000
  O   O153      1.0  0.82023  0.61582  0.99414  1.0000
  O   O154      1.0  0.93275  0.37267  0.97688  1.0000
  O   O155      1.0  0.92488  0.62808  0.47631  1.0000
  O   O156      1.0  0.82698  0.35951  0.49730  1.0000
  O   O157      1.0  0.18013  0.38593  0.00573  1.0000
  O   O158      1.0  0.06796  0.62827  0.02314  1.0000
  O   O159      1.0  0.07546  0.37240  0.52380  1.0000
  O   O160      1.0  0.17346  0.63871  0.50326  1.0000
  O   O161      1.0  0.31310  0.12336  0.18563  1.0000
  O   O162      1.0  0.30318  0.87886  0.81194  1.0000
  O   O163      1.0  0.30542  0.12849  0.31068  1.0000
  O   O164      1.0  0.30441  0.87374  0.68702  1.0000
  O   O165      1.0  0.68730  0.87816  0.81493  1.0000
  O   O166      1.0  0.69801  0.12171  0.18841  1.0000
  O   O167      1.0  0.69721  0.87275  0.68840  1.0000
  O   O168      1.0  0.69443  0.12616  0.31287  1.0000
  O   O169      1.0  0.81269  0.62340  0.18564  1.0000
  O   O170      1.0  0.80284  0.37878  0.81188  1.0000
  O   O171      1.0  0.80513  0.62850  0.31074  1.0000
  O   O172      1.0  0.80440  0.37364  0.68702  1.0000
  O   O173      1.0  0.18705  0.37822  0.81494  1.0000
  O   O174      1.0  0.19755  0.62165  0.18835  1.0000
  O   O175      1.0  0.19711  0.37278  0.68848  1.0000
  O   O176      1.0  0.19417  0.62610  0.31288  1.0000
  O   O177      1.0  0.31585  0.19859  0.24555  1.0000
  O   O178      1.0  0.30284  0.80349  0.75309  1.0000
  O   O179      1.0  0.68585  0.80335  0.75467  1.0000
  O   O180      1.0  0.70082  0.19691  0.24725  1.0000
  O   O181      1.0  0.81555  0.69860  0.24560  1.0000
  O   O182      1.0  0.80293  0.30338  0.75307  1.0000
  O   O183      1.0  0.18580  0.30337  0.75473  1.0000
  O   O184      1.0  0.20064  0.69683  0.24724  1.0000
  O   O185      1.0  0.50999  0.18574  0.18246  1.0000
  O   O186      1.0  0.49206  0.81518  0.81826  1.0000
  O   O187      1.0  0.50552  0.18935  0.31060  1.0000
  O   O188      1.0  0.49707  0.81206  0.68918  1.0000
  O   O189      1.0  0.00969  0.68575  0.18249  1.0000
  O   O190      1.0  0.99196  0.31518  0.81830  1.0000
  O   O191      1.0  0.00532  0.68932  0.31059  1.0000
  O   O192      1.0  0.99717  0.31200  0.68917  1.0000
  O   O193      1.0  0.50155  0.05930  0.18504  1.0000
  O   O194      1.0  0.49803  0.94198  0.81427  1.0000
  O   O195      1.0  0.49406  0.06493  0.31935  1.0000
  O   O196      1.0  0.50443  0.93500  0.68115  1.0000
  O   O197      1.0  0.00099  0.55929  0.18501  1.0000
  O   O198      1.0  0.99754  0.44194  0.81425  1.0000
  O   O199      1.0  0.99372  0.56491  0.31935  1.0000
  O   O200      1.0  0.00421  0.43499  0.68116  1.0000
  O   O201      1.0  0.31212  0.05298  0.25142  1.0000
  O   O202      1.0  0.31558  0.94918  0.74646  1.0000
  O   O203      1.0  0.68840  0.94775  0.74827  1.0000
  O   O204      1.0  0.68181  0.05089  0.25342  1.0000
  O   O205      1.0  0.81169  0.55303  0.25144  1.0000
  O   O206      1.0  0.81518  0.44911  0.74640  1.0000
  O   O207      1.0  0.18806  0.44782  0.74830  1.0000
  O   O208      1.0  0.18132  0.55086  0.25338  1.0000
  O   O209      1.0  0.02022  0.32863  0.05539  1.0000
  O   O210      1.0  0.98101  0.67278  0.94478  1.0000
  O   O211      1.0  0.01937  0.32489  0.44345  1.0000
  O   O212      1.0  0.98205  0.67313  0.55775  1.0000
  O   O213      1.0  0.52002  0.82862  0.05538  1.0000
  O   O214      1.0  0.48088  0.17278  0.94480  1.0000
  O   O215      1.0  0.51936  0.82493  0.44350  1.0000
  O   O216      1.0  0.48203  0.17320  0.55778  1.0000
  O   O217      1.0  0.00345  0.24665  0.00509  1.0000
  O   O218      1.0  0.99931  0.75460  0.99534  1.0000
  O   O219      1.0  0.00654  0.24381  0.49460  1.0000
  O   O220      1.0  0.00016  0.75466  0.50707  1.0000
  O   O221      1.0  0.50318  0.74665  0.00509  1.0000
  O   O222      1.0  0.49930  0.25460  0.99537  1.0000
  O   O223      1.0  0.50562  0.74379  0.49454  1.0000
  O   O224      1.0  0.49995  0.25469  0.50701  1.0000
  O   O225      1.0  0.98549  0.42262  0.05625  1.0000
  O   O226      1.0  0.01441  0.57873  0.94362  1.0000
  O   O227      1.0  0.97980  0.41839  0.44727  1.0000
  O   O228      1.0  0.01819  0.57939  0.55179  1.0000
  O   O229      1.0  0.48557  0.92262  0.05625  1.0000
  O   O230      1.0  0.51442  0.07873  0.94360  1.0000
  O   O231      1.0  0.47982  0.91841  0.44739  1.0000
  O   O232      1.0  0.51805  0.07945  0.55187  1.0000
  O   O233      1.0  0.99709  0.50064  0.99978  1.0000
  O   O234      1.0  0.99255  0.50017  0.49794  1.0000
  O   O235      1.0  0.49871  0.00064  0.99982  1.0000
  O   O236      1.0  0.49305  0.00026  0.49793  1.0000
  O   O237      1.0  0.02392  0.07635  0.55659  1.0000
  O   O238      1.0  0.97795  0.92150  0.44276  1.0000
  O   O239      1.0  0.00253  0.07620  0.94049  1.0000
  O   O240      1.0  0.99902  0.92531  0.05963  1.0000
  O   O241      1.0  0.52376  0.57637  0.55671  1.0000
  O   O242      1.0  0.47771  0.42153  0.44287  1.0000
  O   O243      1.0  0.50259  0.57621  0.94049  1.0000
  O   O244      1.0  0.49902  0.42532  0.05962  1.0000
  O   O245      1.0  1.00000  0.99908  0.49948  1.0000
  O   O246      1.0  0.99959  0.00056  0.99980  1.0000
  O   O247      1.0  0.49964  0.49921  0.49945  1.0000
  O   O248      1.0  0.49908  0.50056  0.99979  1.0000
  O   O249      1.0  0.98527  0.17147  0.55689  1.0000
  O   O250      1.0  0.01341  0.82611  0.44324  1.0000
  O   O251      1.0  0.97557  0.17117  0.94587  1.0000
  O   O252      1.0  0.02559  0.83032  0.05436  1.0000
  O   O253      1.0  0.48531  0.67150  0.55692  1.0000
  O   O254      1.0  0.51340  0.32616  0.44321  1.0000
  O   O255      1.0  0.47574  0.67118  0.94585  1.0000
  O   O256      1.0  0.52576  0.33033  0.05437  1.0000
  Si  Si1       1.0  0.24632  0.22496  0.09557  1.0000
  Si  Si2       1.0  0.26042  0.77828  0.90436  1.0000
  Si  Si3       1.0  0.24983  0.22083  0.39757  1.0000
  Si  Si4       1.0  0.25580  0.77761  0.60164  1.0000
  Si  Si5       1.0  0.75551  0.77652  0.90464  1.0000
  Si  Si6       1.0  0.74110  0.22288  0.09594  1.0000
  Si  Si7       1.0  0.75055  0.77707  0.60334  1.0000
  Si  Si8       1.0  0.74496  0.22050  0.39937  1.0000
  Si  Si9       1.0  0.74621  0.72495  0.09559  1.0000
  Si  Si10      1.0  0.76036  0.27826  0.90436  1.0000
  Si  Si11      1.0  0.74975  0.72082  0.39765  1.0000
  Si  Si12      1.0  0.75600  0.27764  0.60157  1.0000
  Si  Si13      1.0  0.25544  0.27651  0.90468  1.0000
  Si  Si14      1.0  0.24097  0.72287  0.09595  1.0000
  Si  Si15      1.0  0.25059  0.27705  0.60343  1.0000
  Si  Si16      1.0  0.24499  0.72054  0.39933  1.0000
  Si  Si17      1.0  0.23116  0.03054  0.10117  1.0000
  Si  Si18      1.0  0.27428  0.97333  0.89829  1.0000
  Si  Si19      1.0  0.25808  0.02568  0.40156  1.0000
  Si  Si20      1.0  0.24731  0.97198  0.59587  1.0000
  Si  Si21      1.0  0.76854  0.97100  0.89865  1.0000
  Si  Si22      1.0  0.72564  0.02783  0.10146  1.0000
  Si  Si23      1.0  0.73967  0.97297  0.59679  1.0000
  Si  Si24      1.0  0.74928  0.02639  0.40379  1.0000
  Si  Si25      1.0  0.73067  0.53049  0.10122  1.0000
  Si  Si26      1.0  0.77394  0.47331  0.89822  1.0000
  Si  Si27      1.0  0.75787  0.52567  0.40158  1.0000
  Si  Si28      1.0  0.74723  0.47198  0.59582  1.0000
  Si  Si29      1.0  0.26806  0.47095  0.89871  1.0000
  Si  Si30      1.0  0.22527  0.52781  0.10139  1.0000
  Si  Si31      1.0  0.23955  0.47293  0.59680  1.0000
  Si  Si32      1.0  0.24917  0.52641  0.40375  1.0000
  Si  Si33      1.0  0.21856  0.12521  0.03878  1.0000
  Si  Si34      1.0  0.28165  0.87690  0.95986  1.0000
  Si  Si35      1.0  0.27435  0.12546  0.45855  1.0000
  Si  Si36      1.0  0.22397  0.87283  0.54046  1.0000
  Si  Si37      1.0  0.78228  0.87637  0.96125  1.0000
  Si  Si38      1.0  0.71912  0.12432  0.04013  1.0000
  Si  Si39      1.0  0.72655  0.87272  0.54128  1.0000
  Si  Si40      1.0  0.77493  0.12499  0.45988  1.0000
  Si  Si41      1.0  0.71858  0.62518  0.03879  1.0000
  Si  Si42      1.0  0.78168  0.37689  0.95983  1.0000
  Si  Si43      1.0  0.77426  0.62543  0.45860  1.0000
  Si  Si44      1.0  0.72410  0.37285  0.54041  1.0000
  Si  Si45      1.0  0.28225  0.37633  0.96126  1.0000
  Si  Si46      1.0  0.21918  0.62433  0.04011  1.0000
  Si  Si47      1.0  0.22639  0.37269  0.54130  1.0000
  Si  Si48      1.0  0.27513  0.62503  0.45986  1.0000
  Si  Si49      1.0  0.35417  0.17964  0.19116  1.0000
  Si  Si50      1.0  0.33810  0.82229  0.80755  1.0000
  Si  Si51      1.0  0.35037  0.18391  0.30129  1.0000
  Si  Si52      1.0  0.34172  0.81803  0.69757  1.0000
  Si  Si53      1.0  0.64758  0.82178  0.80921  1.0000
  Si  Si54      1.0  0.66406  0.17837  0.19281  1.0000
  Si  Si55      1.0  0.65221  0.81741  0.69868  1.0000
  Si  Si56      1.0  0.66058  0.18223  0.30262  1.0000
  Si  Si57      1.0  0.85387  0.67968  0.19121  1.0000
  Si  Si58      1.0  0.83800  0.32222  0.80753  1.0000
  Si  Si59      1.0  0.85014  0.68391  0.30134  1.0000
  Si  Si60      1.0  0.84181  0.31795  0.69755  1.0000
  Si  Si61      1.0  0.14746  0.32182  0.80926  1.0000
  Si  Si62      1.0  0.16375  0.67832  0.19280  1.0000
  Si  Si63      1.0  0.15228  0.31742  0.69874  1.0000
  Si  Si64      1.0  0.16037  0.68217  0.30261  1.0000
  Si  Si65      1.0  0.34721  0.06721  0.19534  1.0000
  Si  Si66      1.0  0.34374  0.93474  0.80269  1.0000
  Si  Si67      1.0  0.34063  0.07184  0.30648  1.0000
  Si  Si68      1.0  0.34888  0.92980  0.69185  1.0000
  Si  Si69      1.0  0.65261  0.93412  0.80446  1.0000
  Si  Si70      1.0  0.65570  0.06592  0.19719  1.0000
  Si  Si71      1.0  0.65862  0.92912  0.69318  1.0000
  Si  Si72      1.0  0.64943  0.07015  0.30816  1.0000
  Si  Si73      1.0  0.84668  0.56725  0.19536  1.0000
  Si  Si74      1.0  0.84328  0.43467  0.80264  1.0000
  Si  Si75      1.0  0.84029  0.57185  0.30651  1.0000
  Si  Si76      1.0  0.84866  0.42973  0.69182  1.0000
  Si  Si77      1.0  0.15216  0.43416  0.80448  1.0000
  Si  Si78      1.0  0.15516  0.56588  0.19714  1.0000
  Si  Si79      1.0  0.15840  0.42915  0.69321  1.0000
  Si  Si80      1.0  0.14909  0.57010  0.30814  1.0000
  Si  Si81      1.0  0.99502  0.27130  0.05882  1.0000
  Si  Si82      1.0  0.00688  0.73006  0.94156  1.0000
  Si  Si83      1.0  0.99881  0.26718  0.44042  1.0000
  Si  Si84      1.0  0.00332  0.73079  0.56115  1.0000
  Si  Si85      1.0  0.49485  0.77129  0.05882  1.0000
  Si  Si86      1.0  0.50682  0.23006  0.94159  1.0000
  Si  Si87      1.0  0.49856  0.76724  0.44039  1.0000
  Si  Si88      1.0  0.50332  0.23087  0.56111  1.0000
  Si  Si89      1.0  0.97601  0.48063  0.05485  1.0000
  Si  Si90      1.0  0.02172  0.52066  0.94491  1.0000
  Si  Si91      1.0  0.00280  0.47575  0.44439  1.0000
  Si  Si92      1.0  0.99071  0.52216  0.55267  1.0000
  Si  Si93      1.0  0.47670  0.98065  0.05485  1.0000
  Si  Si94      1.0  0.52240  0.02068  0.94490  1.0000
  Si  Si95      1.0  0.50301  0.97576  0.44440  1.0000
  Si  Si96      1.0  0.49086  0.02220  0.55267  1.0000
  Si  Si97      1.0  0.99499  0.01895  0.55541  1.0000
  Si  Si98      1.0  0.00308  0.97915  0.44357  1.0000
  Si  Si99      1.0  0.01791  0.01830  0.94335  1.0000
  Si  Si100     1.0  0.98197  0.98312  0.05638  1.0000
  Si  Si101     1.0  0.49480  0.51898  0.55542  1.0000
  Si  Si102     1.0  0.50285  0.47918  0.44358  1.0000
  Si  Si103     1.0  0.51751  0.51829  0.94334  1.0000
  Si  Si104     1.0  0.48155  0.48312  0.05637  1.0000
  Si  Si105     1.0  0.00574  0.22932  0.55199  1.0000
  Si  Si106     1.0  0.99554  0.76827  0.44947  1.0000
  Si  Si107     1.0  0.00730  0.22823  0.94888  1.0000
  Si  Si108     1.0  0.99457  0.77321  0.05147  1.0000
  Si  Si109     1.0  0.50546  0.72936  0.55195  1.0000
  Si  Si110     1.0  0.49549  0.26832  0.44941  1.0000
  Si  Si111     1.0  0.50731  0.72824  0.94889  1.0000
  Si  Si112     1.0  0.49468  0.27323  0.05149  1.0000
  Si  Si113     1.0  0.03014  0.37722  0.02354  1.0000
  Si  Si114     1.0  0.97047  0.62412  0.97647  1.0000
  Si  Si115     1.0  0.97536  0.36904  0.47805  1.0000
  Si  Si116     1.0  0.02464  0.62949  0.52224  1.0000
  Si  Si117     1.0  0.53013  0.87721  0.02354  1.0000
  Si  Si118     1.0  0.47043  0.12411  0.97647  1.0000
  Si  Si119     1.0  0.47538  0.86905  0.47813  1.0000
  Si  Si120     1.0  0.52459  0.12954  0.52230  1.0000
  Si  Si121     1.0  0.02601  0.12500  0.52439  1.0000
  Si  Si122     1.0  0.97383  0.87304  0.47526  1.0000
  Si  Si123     1.0  0.96571  0.12105  0.97545  1.0000
  Si  Si124     1.0  0.03529  0.88039  0.02469  1.0000
  Si  Si125     1.0  0.52603  0.62499  0.52447  1.0000
  Si  Si126     1.0  0.47378  0.37303  0.47531  1.0000
  Si  Si127     1.0  0.46577  0.62106  0.97544  1.0000
  Si  Si128     1.0  0.53532  0.38040  0.02469  1.0000
