data_image0
_chemical_formula_structural       O16Si8
_chemical_formula_sum              "O16 Si8"
_cell_length_a       7.12426
_cell_length_b       7.12417
_cell_length_c       8.79523
_cell_angle_alpha    89.9998
_cell_angle_beta     89.9996
_cell_angle_gamma    90

_space_group_name_H-M_alt    "P 1"
_space_group_IT_number       1

loop_
  _space_group_symop_operation_xyz
  'x, y, z'

loop_
  _atom_site_type_symbol
  _atom_site_label
  _atom_site_symmetry_multiplicity
  _atom_site_fract_x
  _atom_site_fract_y
  _atom_site_fract_z
  _atom_site_occupancy
  O   O1        1.0  0.68518  0.31481  0.24999  1.0000
  O   O2        1.0  0.68519  0.68519  0.75000  1.0000
  O   O3        1.0  0.31481  0.68519  0.25000  1.0000
  O   O4        1.0  0.31481  0.31481  0.75001  1.0000
  O   O5        1.0  0.31481  0.31481  0.25000  1.0000
  O   O6        1.0  0.31482  0.68519  0.75001  1.0000
  O   O7        1.0  0.68519  0.68519  0.24999  1.0000
  O   O8        1.0  0.68519  0.31481  0.75000  1.0000
  O   O9        1.0  0.75576  0.50000  1.00000  1.0000
  O   O10       1.0  0.50000  0.75569  0.50000  1.0000
  O   O11       1.0  0.24424  0.50000  0.00000  1.0000
  O   O12       1.0  0.50000  0.24431  0.50000  1.0000
  O   O13       1.0  1.00000  0.50000  0.22503  1.0000
  O   O14       1.0  0.50000  1.00000  0.72499  1.0000
  O   O15       1.0  0.00000  0.50000  0.77497  1.0000
  O   O16       1.0  0.50000  0.00000  0.27501  1.0000
  Si  Si1       1.0  0.78198  0.50000  0.18097  1.0000
  Si  Si2       1.0  0.50000  0.78197  0.68097  1.0000
  Si  Si3       1.0  0.21801  0.50000  0.18098  1.0000
  Si  Si4       1.0  0.50000  0.21803  0.68097  1.0000
  Si  Si5       1.0  0.21802  0.50000  0.81903  1.0000
  Si  Si6       1.0  0.50000  0.21803  0.31903  1.0000
  Si  Si7       1.0  0.78199  0.50000  0.81902  1.0000
  Si  Si8       1.0  0.50000  0.78197  0.31903  1.0000
