data_image0
_chemical_formula_structural       O12Si6
_chemical_formula_sum              "O12 Si6"
_cell_length_a       5.23314
_cell_length_b       7.36425
_cell_length_c       8.12834
_cell_angle_alpha    90.0006
_cell_angle_beta     90.0004
_cell_angle_gamma    89.9999

_space_group_name_H-M_alt    "P 1"
_space_group_IT_number       1

loop_
  _space_group_symop_operation_xyz
  'x, y, z'

loop_
  _atom_site_type_symbol
  _atom_site_label
  _atom_site_symmetry_multiplicity
  _atom_site_fract_x
  _atom_site_fract_y
  _atom_site_fract_z
  _atom_site_occupancy
  O   O1        1.0  0.00000  0.26771  1.00000  1.0000
  O   O2        1.0  0.50000  0.26771  0.00000  1.0000
  O   O3        1.0  1.00000  0.73229  0.00000  1.0000
  O   O4        1.0  0.50000  0.73229  1.00000  1.0000
  O   O5        1.0  0.25000  0.00000  0.14186  1.0000
  O   O6        1.0  0.75000  1.00000  0.85814  1.0000
  O   O7        1.0  0.25000  0.32072  0.27506  1.0000
  O   O8        1.0  0.25000  0.67929  0.27507  1.0000
  O   O9        1.0  0.75000  0.67928  0.72494  1.0000
  O   O10       1.0  0.75000  0.32071  0.72493  1.0000
  O   O11       1.0  0.50000  0.50000  0.50000  1.0000
  O   O12       1.0  1.00000  0.50000  0.50000  1.0000
  Si  Si1       1.0  0.25000  0.21396  0.10395  1.0000
  Si  Si2       1.0  0.25000  0.78604  0.10395  1.0000
  Si  Si3       1.0  0.75000  0.78604  0.89605  1.0000
  Si  Si4       1.0  0.75000  0.21396  0.89605  1.0000
  Si  Si5       1.0  0.25000  0.50000  0.38764  1.0000
  Si  Si6       1.0  0.75000  0.50000  0.61236  1.0000
