data_image0
_chemical_formula_structural       O96Si48
_chemical_formula_sum              "O96 Si48"
_cell_length_a       14.0673
_cell_length_b       14.0682
_cell_length_c       14.0675
_cell_angle_alpha    90.0036
_cell_angle_beta     90.0038
_cell_angle_gamma    90

_space_group_name_H-M_alt    "P 1"
_space_group_IT_number       1

loop_
  _space_group_symop_operation_xyz
  'x, y, z'

loop_
  _atom_site_type_symbol
  _atom_site_label
  _atom_site_symmetry_multiplicity
  _atom_site_fract_x
  _atom_site_fract_y
  _atom_site_fract_z
  _atom_site_occupancy
  O   O1        1.0  0.87666  0.10191  0.94180  1.0000
  O   O2        1.0  0.94185  0.87666  0.10189  1.0000
  O   O3        1.0  0.10193  0.94187  0.87673  1.0000
  O   O4        1.0  0.37676  0.10186  0.55807  1.0000
  O   O5        1.0  0.44183  0.87673  0.39809  1.0000
  O   O6        1.0  0.60195  0.94186  0.62336  1.0000
  O   O7        1.0  0.62332  0.60185  0.94193  1.0000
  O   O8        1.0  0.55812  0.37681  0.10192  1.0000
  O   O9        1.0  0.39804  0.44180  0.87661  1.0000
  O   O10       1.0  0.12326  0.60194  0.55818  1.0000
  O   O11       1.0  0.05818  0.37665  0.39810  1.0000
  O   O12       1.0  0.89811  0.44191  0.62326  1.0000
  O   O13       1.0  0.12330  0.89809  0.05818  1.0000
  O   O14       1.0  0.05813  0.12330  0.89811  1.0000
  O   O15       1.0  0.89807  0.05810  0.12324  1.0000
  O   O16       1.0  0.62328  0.89813  0.44191  1.0000
  O   O17       1.0  0.55819  0.12330  0.60194  1.0000
  O   O18       1.0  0.39804  0.05816  0.37661  1.0000
  O   O19       1.0  0.37667  0.39815  0.05809  1.0000
  O   O20       1.0  0.44188  0.62321  0.89808  1.0000
  O   O21       1.0  0.60197  0.55821  0.12341  1.0000
  O   O22       1.0  0.87673  0.39806  0.44181  1.0000
  O   O23       1.0  0.94181  0.62336  0.60191  1.0000
  O   O24       1.0  0.10189  0.55810  0.37673  1.0000
  O   O25       1.0  0.72678  0.07877  0.05394  1.0000
  O   O26       1.0  0.05402  0.72680  0.07881  1.0000
  O   O27       1.0  0.07884  0.05400  0.72683  1.0000
  O   O28       1.0  0.22680  0.07878  0.44601  1.0000
  O   O29       1.0  0.55397  0.72685  0.42122  1.0000
  O   O30       1.0  0.57881  0.05401  0.77323  1.0000
  O   O31       1.0  0.77323  0.57877  0.05403  1.0000
  O   O32       1.0  0.44603  0.22690  0.07878  1.0000
  O   O33       1.0  0.42121  0.55398  0.72676  1.0000
  O   O34       1.0  0.27316  0.57880  0.44608  1.0000
  O   O35       1.0  0.94604  0.22677  0.42120  1.0000
  O   O36       1.0  0.92117  0.55403  0.77318  1.0000
  O   O37       1.0  0.27321  0.92123  0.94608  1.0000
  O   O38       1.0  0.94598  0.27319  0.92118  1.0000
  O   O39       1.0  0.92118  0.94601  0.27316  1.0000
  O   O40       1.0  0.77321  0.92122  0.55400  1.0000
  O   O41       1.0  0.44602  0.27315  0.57878  1.0000
  O   O42       1.0  0.42118  0.94597  0.22677  1.0000
  O   O43       1.0  0.22677  0.42122  0.94596  1.0000
  O   O44       1.0  0.55398  0.77310  0.92122  1.0000
  O   O45       1.0  0.57880  0.44603  0.27325  1.0000
  O   O46       1.0  0.72683  0.42120  0.55391  1.0000
  O   O47       1.0  0.05395  0.77323  0.57879  1.0000
  O   O48       1.0  0.07883  0.44596  0.22682  1.0000
  O   O49       1.0  0.84136  0.22989  0.06967  1.0000
  O   O50       1.0  0.06968  0.84136  0.22993  1.0000
  O   O51       1.0  0.22993  0.06971  0.84143  1.0000
  O   O52       1.0  0.34133  0.22991  0.43031  1.0000
  O   O53       1.0  0.56971  0.84141  0.27012  1.0000
  O   O54       1.0  0.72996  0.06971  0.65867  1.0000
  O   O55       1.0  0.65871  0.72993  0.06970  1.0000
  O   O56       1.0  0.43025  0.34148  0.22990  1.0000
  O   O57       1.0  0.27007  0.56970  0.84131  1.0000
  O   O58       1.0  0.15858  0.72990  0.43030  1.0000
  O   O59       1.0  0.93035  0.34129  0.27006  1.0000
  O   O60       1.0  0.77004  0.56968  0.65860  1.0000
  O   O61       1.0  0.15865  0.77010  0.93032  1.0000
  O   O62       1.0  0.93033  0.15865  0.77005  1.0000
  O   O63       1.0  0.77006  0.93029  0.15859  1.0000
  O   O64       1.0  0.65867  0.77010  0.56970  1.0000
  O   O65       1.0  0.43028  0.15858  0.72989  1.0000
  O   O66       1.0  0.27005  0.93028  0.34134  1.0000
  O   O67       1.0  0.34130  0.27008  0.93031  1.0000
  O   O68       1.0  0.56976  0.65851  0.77011  1.0000
  O   O69       1.0  0.72993  0.43030  0.15869  1.0000
  O   O70       1.0  0.84143  0.27011  0.56970  1.0000
  O   O71       1.0  0.06965  0.65871  0.72994  1.0000
  O   O72       1.0  0.22995  0.43032  0.34140  1.0000
  O   O73       1.0  0.99155  0.34026  0.09271  1.0000
  O   O74       1.0  0.09270  0.99154  0.34030  1.0000
  O   O75       1.0  0.34034  0.09276  0.99158  1.0000
  O   O76       1.0  0.49150  0.34029  0.40726  1.0000
  O   O77       1.0  0.59270  0.99153  0.15966  1.0000
  O   O78       1.0  0.84030  0.09275  0.50848  1.0000
  O   O79       1.0  0.50849  0.84022  0.09276  1.0000
  O   O80       1.0  0.40729  0.49159  0.34040  1.0000
  O   O81       1.0  0.15971  0.59275  0.99150  1.0000
  O   O82       1.0  0.00843  0.84031  0.40726  1.0000
  O   O83       1.0  0.90730  0.49148  0.15973  1.0000
  O   O84       1.0  0.65969  0.59275  0.50842  1.0000
  O   O85       1.0  0.00845  0.65973  0.90728  1.0000
  O   O86       1.0  0.90731  0.00847  0.65969  1.0000
  O   O87       1.0  0.65966  0.90724  0.00843  1.0000
  O   O88       1.0  0.50850  0.65972  0.59275  1.0000
  O   O89       1.0  0.40729  0.00847  0.84035  1.0000
  O   O90       1.0  0.15969  0.90725  0.49153  1.0000
  O   O91       1.0  0.49151  0.15977  0.90724  1.0000
  O   O92       1.0  0.59271  0.50841  0.65960  1.0000
  O   O93       1.0  0.84028  0.40724  0.00850  1.0000
  O   O94       1.0  0.99158  0.15969  0.59272  1.0000
  O   O95       1.0  0.09270  0.50850  0.84025  1.0000
  O   O96       1.0  0.34030  0.40726  0.49158  1.0000
  Si  Si1       1.0  0.83487  0.11774  0.04784  1.0000
  Si  Si2       1.0  0.04789  0.83488  0.11778  1.0000
  Si  Si3       1.0  0.11778  0.04791  0.83493  1.0000
  Si  Si4       1.0  0.33489  0.11776  0.45207  1.0000
  Si  Si5       1.0  0.54788  0.83494  0.38226  1.0000
  Si  Si6       1.0  0.61781  0.04791  0.66515  1.0000
  Si  Si7       1.0  0.66516  0.61777  0.04795  1.0000
  Si  Si8       1.0  0.45208  0.33499  0.11775  1.0000
  Si  Si9       1.0  0.38222  0.54786  0.83484  1.0000
  Si  Si10      1.0  0.16507  0.61776  0.45214  1.0000
  Si  Si11      1.0  0.95214  0.33484  0.38221  1.0000
  Si  Si12      1.0  0.88220  0.54793  0.66508  1.0000
  Si  Si13      1.0  0.16512  0.88225  0.95214  1.0000
  Si  Si14      1.0  0.95209  0.16511  0.88221  1.0000
  Si  Si15      1.0  0.88221  0.95208  0.16506  1.0000
  Si  Si16      1.0  0.66512  0.88225  0.54793  1.0000
  Si  Si17      1.0  0.45213  0.16507  0.61775  1.0000
  Si  Si18      1.0  0.38220  0.95210  0.33485  1.0000
  Si  Si19      1.0  0.33485  0.38223  0.95206  1.0000
  Si  Si20      1.0  0.54792  0.66501  0.88225  1.0000
  Si  Si21      1.0  0.61778  0.45215  0.16517  1.0000
  Si  Si22      1.0  0.83493  0.38224  0.54785  1.0000
  Si  Si23      1.0  0.04785  0.66516  0.61778  1.0000
  Si  Si24      1.0  0.11779  0.45207  0.33491  1.0000
  Si  Si25      1.0  0.90519  0.31296  0.02076  1.0000
  Si  Si26      1.0  0.02073  0.90520  0.31299  1.0000
  Si  Si27      1.0  0.31301  0.02078  0.90526  1.0000
  Si  Si28      1.0  0.40518  0.31297  0.47924  1.0000
  Si  Si29      1.0  0.52076  0.90518  0.18701  1.0000
  Si  Si30      1.0  0.81302  0.02078  0.59481  1.0000
  Si  Si31      1.0  0.59481  0.81294  0.02076  1.0000
  Si  Si32      1.0  0.47922  0.40524  0.31302  1.0000
  Si  Si33      1.0  0.18699  0.52078  0.90515  1.0000
  Si  Si34      1.0  0.09477  0.81299  0.47923  1.0000
  Si  Si35      1.0  0.97927  0.40514  0.18700  1.0000
  Si  Si36      1.0  0.68700  0.52075  0.59473  1.0000
  Si  Si37      1.0  0.09482  0.68703  0.97924  1.0000
  Si  Si38      1.0  0.97928  0.09481  0.68700  1.0000
  Si  Si39      1.0  0.68698  0.97922  0.09476  1.0000
  Si  Si40      1.0  0.59481  0.68704  0.52076  1.0000
  Si  Si41      1.0  0.47923  0.09481  0.81300  1.0000
  Si  Si42      1.0  0.18699  0.97922  0.40519  1.0000
  Si  Si43      1.0  0.40520  0.18706  0.97924  1.0000
  Si  Si44      1.0  0.52079  0.59476  0.68699  1.0000
  Si  Si45      1.0  0.81300  0.47920  0.09485  1.0000
  Si  Si46      1.0  0.90523  0.18701  0.52077  1.0000
  Si  Si47      1.0  0.02073  0.59485  0.81299  1.0000
  Si  Si48      1.0  0.31300  0.47925  0.40527  1.0000
