data_image0
_chemical_formula_structural       O108Si54
_chemical_formula_sum              "O108 Si54"
_cell_length_a       13.0692
_cell_length_b       13.0692
_cell_length_c       22.6692
_cell_angle_alpha    90.0001
_cell_angle_beta     89.9999
_cell_angle_gamma    120

_space_group_name_H-M_alt    "P 1"
_space_group_IT_number       1

loop_
  _space_group_symop_operation_xyz
  'x, y, z'

loop_
  _atom_site_type_symbol
  _atom_site_label
  _atom_site_symmetry_multiplicity
  _atom_site_fract_x
  _atom_site_fract_y
  _atom_site_fract_z
  _atom_site_occupancy
  O   O1        1.0  0.09857  0.19714  0.07657  1.0000
  O   O2        1.0  0.76523  0.53047  0.40991  1.0000
  O   O3        1.0  0.43190  0.86381  0.74324  1.0000
  O   O4        1.0  0.80286  0.90143  0.07657  1.0000
  O   O5        1.0  0.46953  0.23477  0.40991  1.0000
  O   O6        1.0  0.13620  0.56810  0.74324  1.0000
  O   O7        1.0  0.09857  0.90143  0.07657  1.0000
  O   O8        1.0  0.76524  0.23476  0.40991  1.0000
  O   O9        1.0  0.43190  0.56810  0.74324  1.0000
  O   O10       1.0  0.90143  0.80286  0.92343  1.0000
  O   O11       1.0  0.56810  0.13619  0.25676  1.0000
  O   O12       1.0  0.23477  0.46953  0.59009  1.0000
  O   O13       1.0  0.19714  0.09857  0.92343  1.0000
  O   O14       1.0  0.86380  0.43190  0.25676  1.0000
  O   O15       1.0  0.53047  0.76523  0.59009  1.0000
  O   O16       1.0  0.90143  0.09857  0.92343  1.0000
  O   O17       1.0  0.56810  0.43190  0.25676  1.0000
  O   O18       1.0  0.23476  0.76524  0.59009  1.0000
  O   O19       1.0  0.02868  0.34638  0.10917  1.0000
  O   O20       1.0  0.69535  0.67971  0.44250  1.0000
  O   O21       1.0  0.36201  0.01304  0.77584  1.0000
  O   O22       1.0  0.65363  0.68230  0.10917  1.0000
  O   O23       1.0  0.32030  0.01564  0.44250  1.0000
  O   O24       1.0  0.98696  0.34897  0.77584  1.0000
  O   O25       1.0  0.31770  0.97132  0.10917  1.0000
  O   O26       1.0  0.98436  0.30466  0.44250  1.0000
  O   O27       1.0  0.65103  0.63799  0.77584  1.0000
  O   O28       1.0  0.65363  0.97133  0.10917  1.0000
  O   O29       1.0  0.32029  0.30466  0.44250  1.0000
  O   O30       1.0  0.98696  0.63799  0.77584  1.0000
  O   O31       1.0  0.31769  0.34637  0.10917  1.0000
  O   O32       1.0  0.98436  0.67971  0.44250  1.0000
  O   O33       1.0  0.65103  0.01304  0.77584  1.0000
  O   O34       1.0  0.02868  0.68230  0.10917  1.0000
  O   O35       1.0  0.69535  0.01564  0.44250  1.0000
  O   O36       1.0  0.36201  0.34897  0.77584  1.0000
  O   O37       1.0  0.97132  0.65362  0.89083  1.0000
  O   O38       1.0  0.63799  0.98696  0.22416  1.0000
  O   O39       1.0  0.30465  0.32029  0.55750  1.0000
  O   O40       1.0  0.34637  0.31770  0.89083  1.0000
  O   O41       1.0  0.01304  0.65103  0.22416  1.0000
  O   O42       1.0  0.67970  0.98436  0.55750  1.0000
  O   O43       1.0  0.68230  0.02868  0.89083  1.0000
  O   O44       1.0  0.34897  0.36201  0.22416  1.0000
  O   O45       1.0  0.01564  0.69534  0.55750  1.0000
  O   O46       1.0  0.34637  0.02867  0.89083  1.0000
  O   O47       1.0  0.01304  0.36201  0.22416  1.0000
  O   O48       1.0  0.67971  0.69534  0.55750  1.0000
  O   O49       1.0  0.68231  0.65363  0.89083  1.0000
  O   O50       1.0  0.34897  0.98696  0.22416  1.0000
  O   O51       1.0  0.01564  0.32029  0.55750  1.0000
  O   O52       1.0  0.97132  0.31770  0.89083  1.0000
  O   O53       1.0  0.63799  0.65103  0.22416  1.0000
  O   O54       1.0  0.30465  0.98436  0.55750  1.0000
  O   O55       1.0  0.87315  0.12685  0.08482  1.0000
  O   O56       1.0  0.53982  0.46019  0.41816  1.0000
  O   O57       1.0  0.20648  0.79352  0.75149  1.0000
  O   O58       1.0  0.87315  0.74630  0.08482  1.0000
  O   O59       1.0  0.53982  0.07963  0.41816  1.0000
  O   O60       1.0  0.20648  0.41297  0.75149  1.0000
  O   O61       1.0  0.25370  0.12685  0.08482  1.0000
  O   O62       1.0  0.92037  0.46018  0.41816  1.0000
  O   O63       1.0  0.58704  0.79352  0.75149  1.0000
  O   O64       1.0  0.12685  0.87315  0.91518  1.0000
  O   O65       1.0  0.79352  0.20648  0.24851  1.0000
  O   O66       1.0  0.46018  0.53981  0.58184  1.0000
  O   O67       1.0  0.12685  0.25370  0.91518  1.0000
  O   O68       1.0  0.79352  0.58703  0.24851  1.0000
  O   O69       1.0  0.46018  0.92037  0.58184  1.0000
  O   O70       1.0  0.74630  0.87315  0.91518  1.0000
  O   O71       1.0  0.41296  0.20648  0.24851  1.0000
  O   O72       1.0  0.07963  0.53982  0.58184  1.0000
  O   O73       1.0  1.00000  0.27352  1.00000  1.0000
  O   O74       1.0  0.66667  0.60685  0.33333  1.0000
  O   O75       1.0  0.33333  0.94019  0.66667  1.0000
  O   O76       1.0  0.72648  0.72648  0.00000  1.0000
  O   O77       1.0  0.39315  0.05982  0.33333  1.0000
  O   O78       1.0  0.05982  0.39315  0.66667  1.0000
  O   O79       1.0  0.27352  1.00000  1.00000  1.0000
  O   O80       1.0  0.94018  0.33333  0.33333  1.0000
  O   O81       1.0  0.60685  0.66666  0.66667  1.0000
  O   O82       1.0  0.72648  0.00000  0.00000  1.0000
  O   O83       1.0  0.39315  0.33334  0.33333  1.0000
  O   O84       1.0  0.05982  0.66667  0.66667  1.0000
  O   O85       1.0  0.27352  0.27352  1.00000  1.0000
  O   O86       1.0  0.94018  0.60685  0.33333  1.0000
  O   O87       1.0  0.60685  0.94018  0.66667  1.0000
  O   O88       1.0  0.00000  0.72648  0.00000  1.0000
  O   O89       1.0  0.66667  0.05981  0.33333  1.0000
  O   O90       1.0  0.33333  0.39315  0.66667  1.0000
  O   O91       1.0  0.11371  0.88629  0.49091  1.0000
  O   O92       1.0  0.78037  0.21962  0.82424  1.0000
  O   O93       1.0  0.44704  0.55296  0.15757  1.0000
  O   O94       1.0  0.11371  0.22741  0.49091  1.0000
  O   O95       1.0  0.78037  0.56075  0.82424  1.0000
  O   O96       1.0  0.44704  0.89408  0.15757  1.0000
  O   O97       1.0  0.77259  0.88629  0.49091  1.0000
  O   O98       1.0  0.43925  0.21963  0.82424  1.0000
  O   O99       1.0  0.10592  0.55296  0.15758  1.0000
  O   O100      1.0  0.88629  0.11371  0.50909  1.0000
  O   O101      1.0  0.55296  0.44704  0.84243  1.0000
  O   O102      1.0  0.21963  0.78038  0.17576  1.0000
  O   O103      1.0  0.88629  0.77259  0.50909  1.0000
  O   O104      1.0  0.55296  0.10592  0.84243  1.0000
  O   O105      1.0  0.21963  0.43925  0.17576  1.0000
  O   O106      1.0  0.22741  0.11371  0.50909  1.0000
  O   O107      1.0  0.89408  0.44704  0.84242  1.0000
  O   O108      1.0  0.56075  0.78037  0.17576  1.0000
  Si  Si1       1.0  0.00016  0.23607  0.06770  1.0000
  Si  Si2       1.0  0.66683  0.56940  0.40103  1.0000
  Si  Si3       1.0  0.33349  0.90274  0.73437  1.0000
  Si  Si4       1.0  0.76393  0.76409  0.06770  1.0000
  Si  Si5       1.0  0.43060  0.09743  0.40103  1.0000
  Si  Si6       1.0  0.09727  0.43076  0.73437  1.0000
  Si  Si7       1.0  0.23591  0.99984  0.06770  1.0000
  Si  Si8       1.0  0.90258  0.33317  0.40103  1.0000
  Si  Si9       1.0  0.56924  0.66651  0.73437  1.0000
  Si  Si10      1.0  0.76393  0.99984  0.06770  1.0000
  Si  Si11      1.0  0.43060  0.33318  0.40103  1.0000
  Si  Si12      1.0  0.09727  0.66651  0.73437  1.0000
  Si  Si13      1.0  0.23591  0.23607  0.06770  1.0000
  Si  Si14      1.0  0.90257  0.56940  0.40103  1.0000
  Si  Si15      1.0  0.56924  0.90273  0.73436  1.0000
  Si  Si16      1.0  0.00016  0.76409  0.06770  1.0000
  Si  Si17      1.0  0.66683  0.09742  0.40103  1.0000
  Si  Si18      1.0  0.33349  0.43076  0.73437  1.0000
  Si  Si19      1.0  0.99984  0.76393  0.93230  1.0000
  Si  Si20      1.0  0.66651  0.09726  0.26563  1.0000
  Si  Si21      1.0  0.33317  0.43060  0.59897  1.0000
  Si  Si22      1.0  0.23607  0.23591  0.93230  1.0000
  Si  Si23      1.0  0.90273  0.56924  0.26563  1.0000
  Si  Si24      1.0  0.56940  0.90257  0.59897  1.0000
  Si  Si25      1.0  0.76409  0.00016  0.93230  1.0000
  Si  Si26      1.0  0.43076  0.33349  0.26563  1.0000
  Si  Si27      1.0  0.09742  0.66683  0.59897  1.0000
  Si  Si28      1.0  0.23607  0.00016  0.93230  1.0000
  Si  Si29      1.0  0.90273  0.33349  0.26563  1.0000
  Si  Si30      1.0  0.56940  0.66682  0.59897  1.0000
  Si  Si31      1.0  0.76409  0.76393  0.93230  1.0000
  Si  Si32      1.0  0.43076  0.09727  0.26564  1.0000
  Si  Si33      1.0  0.09743  0.43060  0.59897  1.0000
  Si  Si34      1.0  0.99984  0.23591  0.93230  1.0000
  Si  Si35      1.0  0.66651  0.56924  0.26563  1.0000
  Si  Si36      1.0  0.33317  0.90258  0.59897  1.0000
  Si  Si37      1.0  0.24166  1.00000  0.50000  1.0000
  Si  Si38      1.0  0.90832  0.33333  0.83333  1.0000
  Si  Si39      1.0  0.57499  0.66667  0.16667  1.0000
  Si  Si40      1.0  0.00000  0.24166  0.50000  1.0000
  Si  Si41      1.0  0.66667  0.57499  0.83333  1.0000
  Si  Si42      1.0  0.33333  0.90832  0.16667  1.0000
  Si  Si43      1.0  0.75835  0.75834  0.50000  1.0000
  Si  Si44      1.0  0.42501  0.09168  0.83333  1.0000
  Si  Si45      1.0  0.09168  0.42501  0.16667  1.0000
  Si  Si46      1.0  1.00000  0.75834  0.50000  1.0000
  Si  Si47      1.0  0.66667  0.09168  0.83333  1.0000
  Si  Si48      1.0  0.33333  0.42501  0.16667  1.0000
  Si  Si49      1.0  0.75834  0.00000  0.50000  1.0000
  Si  Si50      1.0  0.42501  0.33333  0.83333  1.0000
  Si  Si51      1.0  0.09168  0.66667  0.16667  1.0000
  Si  Si52      1.0  0.24165  0.24166  0.50000  1.0000
  Si  Si53      1.0  0.90832  0.57499  0.83333  1.0000
  Si  Si54      1.0  0.57499  0.90832  0.16667  1.0000
