data_image0
_chemical_formula_structural       O36Si18
_chemical_formula_sum              "O36 Si18"
_cell_length_a       7.15798
_cell_length_b       7.15798
_cell_length_c       20.814
_cell_angle_alpha    90
_cell_angle_beta     89.9999
_cell_angle_gamma    90.0001

_space_group_name_H-M_alt    "P 1"
_space_group_IT_number       1

loop_
  _space_group_symop_operation_xyz
  'x, y, z'

loop_
  _atom_site_type_symbol
  _atom_site_label
  _atom_site_symmetry_multiplicity
  _atom_site_fract_x
  _atom_site_fract_y
  _atom_site_fract_z
  _atom_site_occupancy
  O   O1        1.0  0.26192  0.50000  1.00000  1.0000
  O   O2        1.0  0.50000  0.26192  0.50000  1.0000
  O   O3        1.0  0.73808  0.50000  0.00000  1.0000
  O   O4        1.0  0.50000  0.73808  0.50000  1.0000
  O   O5        1.0  0.18459  0.68366  0.10518  1.0000
  O   O6        1.0  0.31634  0.18459  0.60518  1.0000
  O   O7        1.0  0.81541  0.31634  0.10518  1.0000
  O   O8        1.0  0.68366  0.81541  0.60518  1.0000
  O   O9        1.0  0.81541  0.68366  0.10518  1.0000
  O   O10       1.0  0.68366  0.18459  0.60518  1.0000
  O   O11       1.0  0.18459  0.31634  0.10518  1.0000
  O   O12       1.0  0.31634  0.81541  0.60518  1.0000
  O   O13       1.0  0.81541  0.31634  0.89482  1.0000
  O   O14       1.0  0.68366  0.81541  0.39482  1.0000
  O   O15       1.0  0.18459  0.68366  0.89482  1.0000
  O   O16       1.0  0.31634  0.18459  0.39482  1.0000
  O   O17       1.0  0.18459  0.31634  0.89482  1.0000
  O   O18       1.0  0.31634  0.81541  0.39482  1.0000
  O   O19       1.0  0.81541  0.68366  0.89482  1.0000
  O   O20       1.0  0.68366  0.18459  0.39482  1.0000
  O   O21       1.0  0.50000  0.50000  0.09679  1.0000
  O   O22       1.0  0.50000  0.50000  0.59679  1.0000
  O   O23       1.0  0.50000  0.50000  0.90321  1.0000
  O   O24       1.0  0.50000  0.50000  0.40321  1.0000
  O   O25       1.0  0.00000  1.00000  0.09520  1.0000
  O   O26       1.0  0.00000  0.00000  0.59520  1.0000
  O   O27       1.0  1.00000  0.00000  0.90480  1.0000
  O   O28       1.0  1.00000  1.00000  0.40480  1.0000
  O   O29       1.0  0.00000  0.81750  0.20437  1.0000
  O   O30       1.0  0.18250  1.00000  0.70437  1.0000
  O   O31       1.0  0.00000  0.18250  0.20437  1.0000
  O   O32       1.0  0.81750  0.00000  0.70437  1.0000
  O   O33       1.0  1.00000  0.18250  0.79563  1.0000
  O   O34       1.0  0.81750  0.00000  0.29563  1.0000
  O   O35       1.0  1.00000  0.81750  0.79563  1.0000
  O   O36       1.0  0.18250  1.00000  0.29563  1.0000
  Si  Si1       1.0  0.28365  0.50000  0.07671  1.0000
  Si  Si2       1.0  0.50000  0.28365  0.57671  1.0000
  Si  Si3       1.0  0.71635  0.50000  0.07671  1.0000
  Si  Si4       1.0  0.50000  0.71635  0.57671  1.0000
  Si  Si5       1.0  0.71635  0.50000  0.92329  1.0000
  Si  Si6       1.0  0.50000  0.71635  0.42329  1.0000
  Si  Si7       1.0  0.28365  0.50000  0.92329  1.0000
  Si  Si8       1.0  0.50000  0.28365  0.42329  1.0000
  Si  Si9       1.0  0.00000  0.79399  0.12703  1.0000
  Si  Si10      1.0  0.20601  1.00000  0.62703  1.0000
  Si  Si11      1.0  0.00000  0.20601  0.12703  1.0000
  Si  Si12      1.0  0.79399  0.00000  0.62703  1.0000
  Si  Si13      1.0  1.00000  0.20601  0.87297  1.0000
  Si  Si14      1.0  0.79399  0.00000  0.37297  1.0000
  Si  Si15      1.0  1.00000  0.79399  0.87297  1.0000
  Si  Si16      1.0  0.20601  1.00000  0.37297  1.0000
  Si  Si17      1.0  0.00000  0.00000  0.75000  1.0000
  Si  Si18      1.0  1.00000  1.00000  0.25000  1.0000
