data_image0
_chemical_formula_structural       O88Si44
_chemical_formula_sum              "O88 Si44"
_cell_length_a       9.61684
_cell_length_b       30.6011
_cell_length_c       7.32498
_cell_angle_alpha    90.0001
_cell_angle_beta     91.3327
_cell_angle_gamma    90.0004

_space_group_name_H-M_alt    "P 1"
_space_group_IT_number       1

loop_
  _space_group_symop_operation_xyz
  'x, y, z'

loop_
  _atom_site_type_symbol
  _atom_site_label
  _atom_site_symmetry_multiplicity
  _atom_site_fract_x
  _atom_site_fract_y
  _atom_site_fract_z
  _atom_site_occupancy
  O   O1        1.0  0.28044  0.13768  0.16203  1.0000
  O   O2        1.0  0.78044  0.63768  0.16203  1.0000
  O   O3        1.0  0.71956  0.13766  0.83795  1.0000
  O   O4        1.0  0.21956  0.63766  0.83795  1.0000
  O   O5        1.0  0.71956  0.86232  0.83797  1.0000
  O   O6        1.0  0.21956  0.36232  0.83797  1.0000
  O   O7        1.0  0.28044  0.86234  0.16205  1.0000
  O   O8        1.0  0.78044  0.36234  0.16205  1.0000
  O   O9        1.0  0.06359  0.18337  0.26584  1.0000
  O   O10       1.0  0.56359  0.68337  0.26584  1.0000
  O   O11       1.0  0.93638  0.18337  0.73415  1.0000
  O   O12       1.0  0.43638  0.68337  0.73415  1.0000
  O   O13       1.0  0.93641  0.81663  0.73416  1.0000
  O   O14       1.0  0.43641  0.31663  0.73416  1.0000
  O   O15       1.0  0.06362  0.81663  0.26585  1.0000
  O   O16       1.0  0.56362  0.31663  0.26585  1.0000
  O   O17       1.0  0.28823  0.17760  0.47662  1.0000
  O   O18       1.0  0.78823  0.67760  0.47662  1.0000
  O   O19       1.0  0.71175  0.17760  0.52337  1.0000
  O   O20       1.0  0.21175  0.67760  0.52337  1.0000
  O   O21       1.0  0.71177  0.82240  0.52338  1.0000
  O   O22       1.0  0.21177  0.32240  0.52338  1.0000
  O   O23       1.0  0.28825  0.82240  0.47663  1.0000
  O   O24       1.0  0.78825  0.32240  0.47663  1.0000
  O   O25       1.0  0.12441  0.10976  0.42533  1.0000
  O   O26       1.0  0.62441  0.60976  0.42533  1.0000
  O   O27       1.0  0.87561  0.10976  0.57464  1.0000
  O   O28       1.0  0.37561  0.60976  0.57464  1.0000
  O   O29       1.0  0.87559  0.89024  0.57467  1.0000
  O   O30       1.0  0.37559  0.39024  0.57467  1.0000
  O   O31       1.0  0.12439  0.89024  0.42536  1.0000
  O   O32       1.0  0.62439  0.39024  0.42536  1.0000
  O   O33       1.0  1.00000  0.39232  0.99999  1.0000
  O   O34       1.0  0.50000  0.89232  0.99999  1.0000
  O   O35       1.0  0.00000  0.60768  0.00001  1.0000
  O   O36       1.0  0.50000  0.10768  0.00001  1.0000
  O   O37       1.0  0.17241  0.33911  0.17415  1.0000
  O   O38       1.0  0.67241  0.83911  0.17415  1.0000
  O   O39       1.0  0.82757  0.33910  0.82587  1.0000
  O   O40       1.0  0.32757  0.83910  0.82587  1.0000
  O   O41       1.0  0.82759  0.66089  0.82585  1.0000
  O   O42       1.0  0.32759  0.16089  0.82585  1.0000
  O   O43       1.0  0.17243  0.66090  0.17413  1.0000
  O   O44       1.0  0.67243  0.16090  0.17413  1.0000
  O   O45       1.0  0.24474  0.41984  0.10561  1.0000
  O   O46       1.0  0.74474  0.91984  0.10561  1.0000
  O   O47       1.0  0.75526  0.41984  0.89438  1.0000
  O   O48       1.0  0.25526  0.91984  0.89438  1.0000
  O   O49       1.0  0.75526  0.58016  0.89439  1.0000
  O   O50       1.0  0.25526  0.08016  0.89439  1.0000
  O   O51       1.0  0.24474  0.58016  0.10562  1.0000
  O   O52       1.0  0.74474  0.08016  0.10562  1.0000
  O   O53       1.0  0.16224  0.00000  0.92152  1.0000
  O   O54       1.0  0.66224  0.50000  0.92152  1.0000
  O   O55       1.0  0.83776  1.00000  0.07848  1.0000
  O   O56       1.0  0.33776  0.50000  0.07848  1.0000
  O   O57       1.0  1.00000  0.06691  1.00000  1.0000
  O   O58       1.0  0.50000  0.56691  1.00000  1.0000
  O   O59       1.0  0.00000  0.93309  0.00000  1.0000
  O   O60       1.0  0.50000  0.43309  0.00000  1.0000
  O   O61       1.0  0.06391  0.05033  0.66098  1.0000
  O   O62       1.0  0.56391  0.55033  0.66098  1.0000
  O   O63       1.0  0.93610  0.05033  0.33902  1.0000
  O   O64       1.0  0.43610  0.55033  0.33902  1.0000
  O   O65       1.0  0.93609  0.94967  0.33902  1.0000
  O   O66       1.0  0.43609  0.44967  0.33902  1.0000
  O   O67       1.0  0.06390  0.94967  0.66098  1.0000
  O   O68       1.0  0.56390  0.44967  0.66098  1.0000
  O   O69       1.0  0.06434  0.26898  0.32070  1.0000
  O   O70       1.0  0.56434  0.76898  0.32070  1.0000
  O   O71       1.0  0.93568  0.26899  0.67932  1.0000
  O   O72       1.0  0.43568  0.76899  0.67932  1.0000
  O   O73       1.0  0.93566  0.73102  0.67930  1.0000
  O   O74       1.0  0.43566  0.23102  0.67930  1.0000
  O   O75       1.0  0.06432  0.73101  0.32068  1.0000
  O   O76       1.0  0.56432  0.23101  0.32068  1.0000
  O   O77       1.0  0.33107  0.27310  0.27457  1.0000
  O   O78       1.0  0.83107  0.77310  0.27457  1.0000
  O   O79       1.0  0.66894  0.27310  0.72539  1.0000
  O   O80       1.0  0.16894  0.77310  0.72539  1.0000
  O   O81       1.0  0.66893  0.72690  0.72543  1.0000
  O   O82       1.0  0.16893  0.22690  0.72543  1.0000
  O   O83       1.0  0.33106  0.72690  0.27461  1.0000
  O   O84       1.0  0.83106  0.22690  0.27461  1.0000
  O   O85       1.0  0.99999  0.23808  0.00001  1.0000
  O   O86       1.0  0.49999  0.73808  0.00001  1.0000
  O   O87       1.0  0.00001  0.76192  0.99999  1.0000
  O   O88       1.0  0.50001  0.26192  0.99999  1.0000
  Si  Si1       1.0  0.12118  0.04954  0.86884  1.0000
  Si  Si2       1.0  0.62118  0.54954  0.86884  1.0000
  Si  Si3       1.0  0.87882  0.04954  0.13117  1.0000
  Si  Si4       1.0  0.37882  0.54954  0.13117  1.0000
  Si  Si5       1.0  0.87882  0.95046  0.13116  1.0000
  Si  Si6       1.0  0.37882  0.45046  0.13116  1.0000
  Si  Si7       1.0  0.12118  0.95046  0.86883  1.0000
  Si  Si8       1.0  0.62118  0.45046  0.86883  1.0000
  Si  Si9       1.0  0.18990  0.15213  0.33177  1.0000
  Si  Si10      1.0  0.68990  0.65213  0.33177  1.0000
  Si  Si11      1.0  0.81009  0.15213  0.66822  1.0000
  Si  Si12      1.0  0.31009  0.65213  0.66822  1.0000
  Si  Si13      1.0  0.81010  0.84787  0.66823  1.0000
  Si  Si14      1.0  0.31010  0.34787  0.66823  1.0000
  Si  Si15      1.0  0.18991  0.84787  0.33178  1.0000
  Si  Si16      1.0  0.68991  0.34787  0.33178  1.0000
  Si  Si17      1.0  0.15965  0.37828  0.02936  1.0000
  Si  Si18      1.0  0.65965  0.87828  0.02936  1.0000
  Si  Si19      1.0  0.84034  0.37828  0.97064  1.0000
  Si  Si20      1.0  0.34034  0.87828  0.97064  1.0000
  Si  Si21      1.0  0.84035  0.62172  0.97064  1.0000
  Si  Si22      1.0  0.34035  0.12172  0.97064  1.0000
  Si  Si23      1.0  0.15966  0.62172  0.02936  1.0000
  Si  Si24      1.0  0.65966  0.12172  0.02936  1.0000
  Si  Si25      1.0  0.19532  0.30132  0.32319  1.0000
  Si  Si26      1.0  0.69532  0.80132  0.32319  1.0000
  Si  Si27      1.0  0.80469  0.30133  0.67682  1.0000
  Si  Si28      1.0  0.30469  0.80133  0.67682  1.0000
  Si  Si29      1.0  0.80468  0.69868  0.67681  1.0000
  Si  Si30      1.0  0.30468  0.19868  0.67681  1.0000
  Si  Si31      1.0  0.19531  0.69867  0.32318  1.0000
  Si  Si32      1.0  0.69531  0.19867  0.32318  1.0000
  Si  Si33      1.0  0.99043  0.22919  0.21511  1.0000
  Si  Si34      1.0  0.49043  0.72919  0.21511  1.0000
  Si  Si35      1.0  0.00956  0.22919  0.78490  1.0000
  Si  Si36      1.0  0.50956  0.72919  0.78490  1.0000
  Si  Si37      1.0  0.00957  0.77081  0.78489  1.0000
  Si  Si38      1.0  0.50957  0.27081  0.78489  1.0000
  Si  Si39      1.0  0.99044  0.77081  0.21510  1.0000
  Si  Si40      1.0  0.49044  0.27081  0.21510  1.0000
  Si  Si41      1.0  0.00001  0.08017  0.49999  1.0000
  Si  Si42      1.0  0.50001  0.58017  0.49999  1.0000
  Si  Si43      1.0  0.99999  0.91983  0.50001  1.0000
  Si  Si44      1.0  0.49999  0.41983  0.50001  1.0000
