data_image0
_chemical_formula_structural       O20Si10
_chemical_formula_sum              "O20 Si10"
_cell_length_a       7.12931
_cell_length_b       9.04465
_cell_length_c       9.12907
_cell_angle_alpha    84.4255
_cell_angle_beta     83.229
_cell_angle_gamma    88.2496

_space_group_name_H-M_alt    "P 1"
_space_group_IT_number       1

loop_
  _space_group_symop_operation_xyz
  'x, y, z'

loop_
  _atom_site_type_symbol
  _atom_site_label
  _atom_site_symmetry_multiplicity
  _atom_site_fract_x
  _atom_site_fract_y
  _atom_site_fract_z
  _atom_site_occupancy
  O   O1        1.0  0.70622  0.34168  0.31437  1.0000
  O   O2        1.0  0.29378  0.65832  0.68563  1.0000
  O   O3        1.0  0.70204  0.50131  0.05913  1.0000
  O   O4        1.0  0.29796  0.49869  0.94087  1.0000
  O   O5        1.0  0.75369  0.21027  0.06779  1.0000
  O   O6        1.0  0.24631  0.78973  0.93221  1.0000
  O   O7        1.0  0.11464  0.48599  0.20877  1.0000
  O   O8        1.0  0.88536  0.51401  0.79123  1.0000
  O   O9        1.0  0.11591  0.25903  0.05042  1.0000
  O   O10       1.0  0.88409  0.74097  0.94958  1.0000
  O   O11       1.0  0.03938  0.77294  0.19258  1.0000
  O   O12       1.0  0.96062  0.22706  0.80742  1.0000
  O   O13       1.0  0.15917  0.41042  0.61133  1.0000
  O   O14       1.0  0.84083  0.58958  0.38867  1.0000
  O   O15       1.0  0.19693  0.64498  0.41879  1.0000
  O   O16       1.0  0.80307  0.35502  0.58121  1.0000
  O   O17       1.0  0.42185  0.32237  0.15919  1.0000
  O   O18       1.0  0.57815  0.67763  0.84081  1.0000
  O   O19       1.0  0.00000  0.00000  0.00000  1.0000
  O   O20       1.0  0.50000  0.50000  0.50000  1.0000
  Si  Si1       1.0  0.64626  0.34321  0.15002  1.0000
  Si  Si2       1.0  0.35374  0.65679  0.84998  1.0000
  Si  Si3       1.0  0.23774  0.39175  0.08997  1.0000
  Si  Si4       1.0  0.76226  0.60825  0.91003  1.0000
  Si  Si5       1.0  0.04209  0.82636  0.01873  1.0000
  Si  Si6       1.0  0.95791  0.17364  0.98127  1.0000
  Si  Si7       1.0  0.04837  0.62434  0.30287  1.0000
  Si  Si8       1.0  0.95163  0.37566  0.69713  1.0000
  Si  Si9       1.0  0.28890  0.55293  0.55379  1.0000
  Si  Si10      1.0  0.71110  0.44707  0.44621  1.0000
