data_image0
_chemical_formula_structural       O80Si40
_chemical_formula_sum              "O80 Si40"
_cell_length_a       20.3909
_cell_length_b       11.6976
_cell_length_c       11.0194
_cell_angle_alpha    90
_cell_angle_beta     118.841
_cell_angle_gamma    90

_space_group_name_H-M_alt    "P 1"
_space_group_IT_number       1

loop_
  _space_group_symop_operation_xyz
  'x, y, z'

loop_
  _atom_site_type_symbol
  _atom_site_label
  _atom_site_symmetry_multiplicity
  _atom_site_fract_x
  _atom_site_fract_y
  _atom_site_fract_z
  _atom_site_occupancy
  O   O1        1.0  0.76342  0.63072  0.37219  1.0000
  O   O2        1.0  0.23657  0.63072  0.12780  1.0000
  O   O3        1.0  0.23658  0.36928  0.62781  1.0000
  O   O4        1.0  0.76343  0.36928  0.87220  1.0000
  O   O5        1.0  0.26342  0.13072  0.37219  1.0000
  O   O6        1.0  0.73657  0.13072  0.12780  1.0000
  O   O7        1.0  0.73658  0.86928  0.62781  1.0000
  O   O8        1.0  0.26343  0.86928  0.87220  1.0000
  O   O9        1.0  0.86448  0.53756  0.31821  1.0000
  O   O10       1.0  0.13552  0.53756  0.18179  1.0000
  O   O11       1.0  0.13552  0.46244  0.68179  1.0000
  O   O12       1.0  0.86448  0.46244  0.81821  1.0000
  O   O13       1.0  0.36448  0.03756  0.31821  1.0000
  O   O14       1.0  0.63552  0.03756  0.18179  1.0000
  O   O15       1.0  0.63552  0.96244  0.68179  1.0000
  O   O16       1.0  0.36448  0.96244  0.81821  1.0000
  O   O17       1.0  0.90653  0.68055  0.52531  1.0000
  O   O18       1.0  0.09347  0.68055  0.97469  1.0000
  O   O19       1.0  0.09347  0.31945  0.47469  1.0000
  O   O20       1.0  0.90653  0.31945  0.02531  1.0000
  O   O21       1.0  0.40653  0.18055  0.52531  1.0000
  O   O22       1.0  0.59347  0.18055  0.97469  1.0000
  O   O23       1.0  0.59347  0.81945  0.47469  1.0000
  O   O24       1.0  0.40653  0.81945  0.02531  1.0000
  O   O25       1.0  0.83193  0.75652  0.27027  1.0000
  O   O26       1.0  0.16807  0.75652  0.22973  1.0000
  O   O27       1.0  0.16807  0.24348  0.72973  1.0000
  O   O28       1.0  0.83193  0.24348  0.77027  1.0000
  O   O29       1.0  0.33193  0.25652  0.27027  1.0000
  O   O30       1.0  0.66807  0.25652  0.22973  1.0000
  O   O31       1.0  0.66807  0.74348  0.72973  1.0000
  O   O32       1.0  0.33193  0.74348  0.77027  1.0000
  O   O33       1.0  0.76172  0.57223  0.60115  1.0000
  O   O34       1.0  0.23827  0.57223  0.89885  1.0000
  O   O35       1.0  0.23828  0.42777  0.39885  1.0000
  O   O36       1.0  0.76173  0.42777  0.10115  1.0000
  O   O37       1.0  0.26172  0.07223  0.60115  1.0000
  O   O38       1.0  0.73827  0.07223  0.89885  1.0000
  O   O39       1.0  0.73828  0.92777  0.39885  1.0000
  O   O40       1.0  0.26173  0.92777  0.10115  1.0000
  O   O41       1.0  0.63911  0.64389  0.38666  1.0000
  O   O42       1.0  0.36089  0.64389  0.11334  1.0000
  O   O43       1.0  0.36089  0.35611  0.61334  1.0000
  O   O44       1.0  0.63911  0.35611  0.88666  1.0000
  O   O45       1.0  0.13911  0.14389  0.38666  1.0000
  O   O46       1.0  0.86089  0.14389  0.11334  1.0000
  O   O47       1.0  0.86089  0.85611  0.61334  1.0000
  O   O48       1.0  0.13911  0.85611  0.88666  1.0000
  O   O49       1.0  0.69205  0.44393  0.37714  1.0000
  O   O50       1.0  0.30795  0.44393  0.12286  1.0000
  O   O51       1.0  0.30795  0.55607  0.62286  1.0000
  O   O52       1.0  0.69205  0.55607  0.87714  1.0000
  O   O53       1.0  0.19205  0.94393  0.37714  1.0000
  O   O54       1.0  0.80795  0.94393  0.12286  1.0000
  O   O55       1.0  0.80795  0.05607  0.62286  1.0000
  O   O56       1.0  0.19205  0.05607  0.87714  1.0000
  O   O57       1.0  0.89568  0.66226  0.75310  1.0000
  O   O58       1.0  0.10432  0.66226  0.74691  1.0000
  O   O59       1.0  0.10432  0.33774  0.24690  1.0000
  O   O60       1.0  0.89568  0.33774  0.25309  1.0000
  O   O61       1.0  0.39568  0.16226  0.75310  1.0000
  O   O62       1.0  0.60432  0.16226  0.74691  1.0000
  O   O63       1.0  0.60432  0.83774  0.24690  1.0000
  O   O64       1.0  0.39568  0.83774  0.25309  1.0000
  O   O65       1.0  0.80187  0.64862  0.85119  1.0000
  O   O66       1.0  0.19813  0.64862  0.64881  1.0000
  O   O67       1.0  0.19813  0.35138  0.14881  1.0000
  O   O68       1.0  0.80187  0.35138  0.35119  1.0000
  O   O69       1.0  0.30187  0.14862  0.85119  1.0000
  O   O70       1.0  0.69813  0.14862  0.64881  1.0000
  O   O71       1.0  0.69813  0.85138  0.14881  1.0000
  O   O72       1.0  0.30187  0.85138  0.35119  1.0000
  O   O73       1.0  0.50000  0.29023  0.75000  1.0000
  O   O74       1.0  0.50000  0.70977  0.25000  1.0000
  O   O75       1.0  0.00000  0.79023  0.75000  1.0000
  O   O76       1.0  1.00000  0.20977  0.25000  1.0000
  O   O77       1.0  0.75000  0.25000  0.50000  1.0000
  O   O78       1.0  0.25000  0.25000  0.00000  1.0000
  O   O79       1.0  0.25000  0.75000  0.50000  1.0000
  O   O80       1.0  0.75000  0.75000  1.00000  1.0000
  Si  Si1       1.0  0.84178  0.65121  0.37139  1.0000
  Si  Si2       1.0  0.15822  0.65121  0.12861  1.0000
  Si  Si3       1.0  0.15822  0.34879  0.62861  1.0000
  Si  Si4       1.0  0.84178  0.34879  0.87139  1.0000
  Si  Si5       1.0  0.34178  0.15121  0.37139  1.0000
  Si  Si6       1.0  0.65822  0.15121  0.12861  1.0000
  Si  Si7       1.0  0.65822  0.84879  0.62861  1.0000
  Si  Si8       1.0  0.34178  0.84879  0.87139  1.0000
  Si  Si9       1.0  0.71426  0.57230  0.43458  1.0000
  Si  Si10      1.0  0.28574  0.57230  0.06542  1.0000
  Si  Si11      1.0  0.28574  0.42770  0.56542  1.0000
  Si  Si12      1.0  0.71426  0.42770  0.93458  1.0000
  Si  Si13      1.0  0.21426  0.07230  0.43458  1.0000
  Si  Si14      1.0  0.78574  0.07230  0.06542  1.0000
  Si  Si15      1.0  0.78574  0.92770  0.56542  1.0000
  Si  Si16      1.0  0.21426  0.92770  0.93458  1.0000
  Si  Si17      1.0  0.83101  0.58640  0.75567  1.0000
  Si  Si18      1.0  0.16899  0.58640  0.74433  1.0000
  Si  Si19      1.0  0.16899  0.41360  0.24433  1.0000
  Si  Si20      1.0  0.83101  0.41360  0.25567  1.0000
  Si  Si21      1.0  0.33101  0.08640  0.75567  1.0000
  Si  Si22      1.0  0.66899  0.08640  0.74433  1.0000
  Si  Si23      1.0  0.66899  0.91360  0.24433  1.0000
  Si  Si24      1.0  0.33101  0.91360  0.25567  1.0000
  Si  Si25      1.0  0.91560  0.74740  0.66059  1.0000
  Si  Si26      1.0  0.08440  0.74740  0.83941  1.0000
  Si  Si27      1.0  0.08440  0.25260  0.33941  1.0000
  Si  Si28      1.0  0.91560  0.25260  0.16059  1.0000
  Si  Si29      1.0  0.41560  0.24740  0.66059  1.0000
  Si  Si30      1.0  0.58440  0.24740  0.83941  1.0000
  Si  Si31      1.0  0.58440  0.75260  0.33941  1.0000
  Si  Si32      1.0  0.41560  0.75260  0.16059  1.0000
  Si  Si33      1.0  0.72792  0.32481  0.36450  1.0000
  Si  Si34      1.0  0.27208  0.32481  0.13550  1.0000
  Si  Si35      1.0  0.27208  0.67519  0.63550  1.0000
  Si  Si36      1.0  0.72792  0.67519  0.86450  1.0000
  Si  Si37      1.0  0.22792  0.82481  0.36450  1.0000
  Si  Si38      1.0  0.77208  0.82481  0.13550  1.0000
  Si  Si39      1.0  0.77208  0.17519  0.63550  1.0000
  Si  Si40      1.0  0.22792  0.17519  0.86450  1.0000
