data_image0
_chemical_formula_structural       O28Si14
_chemical_formula_sum              "O28 Si14"
_cell_length_a       11.3639
_cell_length_b       5.22554
_cell_length_c       13.9514
_cell_angle_alpha    89.9999
_cell_angle_beta     101.127
_cell_angle_gamma    90

_space_group_name_H-M_alt    "P 1"
_space_group_IT_number       1

loop_
  _space_group_symop_operation_xyz
  'x, y, z'

loop_
  _atom_site_type_symbol
  _atom_site_label
  _atom_site_symmetry_multiplicity
  _atom_site_fract_x
  _atom_site_fract_y
  _atom_site_fract_z
  _atom_site_occupancy
  O   O1        1.0  0.28512  0.25000  0.30220  1.0000
  O   O2        1.0  0.71488  0.75000  0.69780  1.0000
  O   O3        1.0  0.30314  0.49992  0.14141  1.0000
  O   O4        1.0  0.69686  0.99992  0.85859  1.0000
  O   O5        1.0  0.69686  0.50008  0.85859  1.0000
  O   O6        1.0  0.30314  0.00008  0.14141  1.0000
  O   O7        1.0  0.10663  0.25000  0.15531  1.0000
  O   O8        1.0  0.89337  0.75000  0.84469  1.0000
  O   O9        1.0  0.36433  0.25000  0.49233  1.0000
  O   O10       1.0  0.63567  0.75000  0.50767  1.0000
  O   O11       1.0  0.48087  0.00016  0.37553  1.0000
  O   O12       1.0  0.51913  0.50016  0.62447  1.0000
  O   O13       1.0  0.51913  0.99984  0.62447  1.0000
  O   O14       1.0  0.48087  0.49984  0.37553  1.0000
  O   O15       1.0  0.34356  0.25000  0.67735  1.0000
  O   O16       1.0  0.65644  0.75000  0.32265  1.0000
  O   O17       1.0  0.65066  0.25000  0.00976  1.0000
  O   O18       1.0  0.34934  0.75000  0.99024  1.0000
  O   O19       1.0  0.49439  0.25000  0.84633  1.0000
  O   O20       1.0  0.50561  0.75000  0.15367  1.0000
  O   O21       1.0  0.29061  0.49982  0.82525  1.0000
  O   O22       1.0  0.70939  0.99982  0.17475  1.0000
  O   O23       1.0  0.70939  0.50018  0.17475  1.0000
  O   O24       1.0  0.29061  0.00018  0.82525  1.0000
  O   O25       1.0  0.87400  0.25000  0.10771  1.0000
  O   O26       1.0  0.12600  0.75000  0.89229  1.0000
  O   O27       1.0  0.00000  0.00000  1.00000  1.0000
  O   O28       1.0  1.00000  0.50000  1.00000  1.0000
  Si  Si1       1.0  0.25007  0.25000  0.18483  1.0000
  Si  Si2       1.0  0.74993  0.75000  0.81517  1.0000
  Si  Si3       1.0  0.40275  0.25000  0.38691  1.0000
  Si  Si4       1.0  0.59725  0.75000  0.61309  1.0000
  Si  Si5       1.0  0.43613  0.25000  0.60396  1.0000
  Si  Si6       1.0  0.56387  0.75000  0.39604  1.0000
  Si  Si7       1.0  0.63455  0.25000  0.89285  1.0000
  Si  Si8       1.0  0.36545  0.75000  0.10715  1.0000
  Si  Si9       1.0  0.35520  0.25000  0.79433  1.0000
  Si  Si10      1.0  0.64480  0.75000  0.20567  1.0000
  Si  Si11      1.0  0.73573  0.25000  0.11648  1.0000
  Si  Si12      1.0  0.26427  0.75000  0.88352  1.0000
  Si  Si13      1.0  0.99484  0.25000  0.06527  1.0000
  Si  Si14      1.0  0.00516  0.75000  0.93473  1.0000
