data_image0
_chemical_formula_structural       O20Si10
_chemical_formula_sum              "O20 Si10"
_cell_length_a       13.7966
_cell_length_b       6.90005
_cell_length_c       6.40786
_cell_angle_alpha    90.0003
_cell_angle_beta     90
_cell_angle_gamma    89.9999

_space_group_name_H-M_alt    "P 1"
_space_group_IT_number       1

loop_
  _space_group_symop_operation_xyz
  'x, y, z'

loop_
  _atom_site_type_symbol
  _atom_site_label
  _atom_site_symmetry_multiplicity
  _atom_site_fract_x
  _atom_site_fract_y
  _atom_site_fract_z
  _atom_site_occupancy
  O   O1        1.0  0.00000  1.00000  0.50000  1.0000
  O   O2        1.0  0.50000  0.00000  0.50000  1.0000
  O   O3        1.0  0.15456  0.19107  0.38069  1.0000
  O   O4        1.0  0.34544  0.19107  0.38069  1.0000
  O   O5        1.0  0.15456  0.80893  0.38069  1.0000
  O   O6        1.0  0.34544  0.80893  0.38069  1.0000
  O   O7        1.0  0.84544  0.80893  0.61931  1.0000
  O   O8        1.0  0.65456  0.80893  0.61931  1.0000
  O   O9        1.0  0.84544  0.19107  0.61931  1.0000
  O   O10       1.0  0.65456  0.19107  0.61931  1.0000
  O   O11       1.0  0.15419  0.00000  0.73692  1.0000
  O   O12       1.0  0.34581  1.00000  0.73692  1.0000
  O   O13       1.0  0.84581  1.00000  0.26308  1.0000
  O   O14       1.0  0.65419  0.00000  0.26308  1.0000
  O   O15       1.0  0.25000  0.50000  0.26051  1.0000
  O   O16       1.0  0.75000  0.50000  0.73949  1.0000
  O   O17       1.0  0.25000  0.19156  0.02420  1.0000
  O   O18       1.0  0.25000  0.80844  0.02420  1.0000
  O   O19       1.0  0.75000  0.80844  0.97580  1.0000
  O   O20       1.0  0.75000  0.19156  0.97580  1.0000
  Si  Si1       1.0  0.11509  1.00000  0.49992  1.0000
  Si  Si2       1.0  0.38491  0.00000  0.49992  1.0000
  Si  Si3       1.0  0.88491  1.00000  0.50008  1.0000
  Si  Si4       1.0  0.61509  0.00000  0.50008  1.0000
  Si  Si5       1.0  0.25000  0.26992  0.26106  1.0000
  Si  Si6       1.0  0.25000  0.73008  0.26106  1.0000
  Si  Si7       1.0  0.75000  0.73008  0.73894  1.0000
  Si  Si8       1.0  0.75000  0.26992  0.73894  1.0000
  Si  Si9       1.0  0.25000  0.00000  0.88054  1.0000
  Si  Si10      1.0  0.75000  0.00000  0.11946  1.0000
