data_image0
_chemical_formula_structural       O40Si20
_chemical_formula_sum              "O40 Si20"
_cell_length_a       12.1032
_cell_length_b       10.2546
_cell_length_c       10.0531
_cell_angle_alpha    90.0007
_cell_angle_beta     90.0001
_cell_angle_gamma    90

_space_group_name_H-M_alt    "P 1"
_space_group_IT_number       1

loop_
  _space_group_symop_operation_xyz
  'x, y, z'

loop_
  _atom_site_type_symbol
  _atom_site_label
  _atom_site_symmetry_multiplicity
  _atom_site_fract_x
  _atom_site_fract_y
  _atom_site_fract_z
  _atom_site_occupancy
  O   O1        1.0  0.42059  0.09073  0.15978  1.0000
  O   O2        1.0  0.92059  0.59073  0.15978  1.0000
  O   O3        1.0  0.57941  0.09073  0.65978  1.0000
  O   O4        1.0  0.07941  0.59073  0.65978  1.0000
  O   O5        1.0  0.42059  0.90927  0.65978  1.0000
  O   O6        1.0  0.92059  0.40927  0.65978  1.0000
  O   O7        1.0  0.57941  0.90927  0.15977  1.0000
  O   O8        1.0  0.07941  0.40927  0.15977  1.0000
  O   O9        1.0  0.57941  0.90927  0.84022  1.0000
  O   O10       1.0  0.07941  0.40927  0.84022  1.0000
  O   O11       1.0  0.42059  0.90927  0.34022  1.0000
  O   O12       1.0  0.92059  0.40927  0.34022  1.0000
  O   O13       1.0  0.57941  0.09073  0.34022  1.0000
  O   O14       1.0  0.07941  0.59073  0.34022  1.0000
  O   O15       1.0  0.42059  0.09073  0.84023  1.0000
  O   O16       1.0  0.92059  0.59073  0.84023  1.0000
  O   O17       1.0  0.24823  0.07871  1.00000  1.0000
  O   O18       1.0  0.74823  0.57871  1.00000  1.0000
  O   O19       1.0  0.75177  0.07871  0.50000  1.0000
  O   O20       1.0  0.25177  0.57871  0.50000  1.0000
  O   O21       1.0  0.24823  0.92129  0.50000  1.0000
  O   O22       1.0  0.74823  0.42129  0.50000  1.0000
  O   O23       1.0  0.75177  0.92129  0.00000  1.0000
  O   O24       1.0  0.25177  0.42129  0.00000  1.0000
  O   O25       1.0  0.23357  0.00000  0.25000  1.0000
  O   O26       1.0  0.73357  0.50000  0.25000  1.0000
  O   O27       1.0  0.76643  1.00000  0.75000  1.0000
  O   O28       1.0  0.26643  0.50000  0.75000  1.0000
  O   O29       1.0  0.23356  0.00000  0.75000  1.0000
  O   O30       1.0  0.73356  0.50000  0.75000  1.0000
  O   O31       1.0  0.76644  1.00000  0.25000  1.0000
  O   O32       1.0  0.26644  0.50000  0.25000  1.0000
  O   O33       1.0  0.25000  0.25000  0.19451  1.0000
  O   O34       1.0  0.75000  0.75000  0.19451  1.0000
  O   O35       1.0  0.75000  0.25000  0.69451  1.0000
  O   O36       1.0  0.25000  0.75000  0.69451  1.0000
  O   O37       1.0  0.75000  0.75000  0.80549  1.0000
  O   O38       1.0  0.25000  0.25000  0.80549  1.0000
  O   O39       1.0  0.25000  0.75000  0.30549  1.0000
  O   O40       1.0  0.75000  0.25000  0.30549  1.0000
  Si  Si1       1.0  0.28732  0.10597  0.15052  1.0000
  Si  Si2       1.0  0.78732  0.60597  0.15052  1.0000
  Si  Si3       1.0  0.71268  0.10596  0.65052  1.0000
  Si  Si4       1.0  0.21268  0.60596  0.65052  1.0000
  Si  Si5       1.0  0.28732  0.89404  0.65052  1.0000
  Si  Si6       1.0  0.78732  0.39404  0.65052  1.0000
  Si  Si7       1.0  0.71268  0.89403  0.15052  1.0000
  Si  Si8       1.0  0.21268  0.39403  0.15052  1.0000
  Si  Si9       1.0  0.71268  0.89403  0.84948  1.0000
  Si  Si10      1.0  0.21268  0.39403  0.84948  1.0000
  Si  Si11      1.0  0.28732  0.89404  0.34948  1.0000
  Si  Si12      1.0  0.78732  0.39404  0.34948  1.0000
  Si  Si13      1.0  0.71268  0.10596  0.34948  1.0000
  Si  Si14      1.0  0.21268  0.60596  0.34948  1.0000
  Si  Si15      1.0  0.28732  0.10597  0.84948  1.0000
  Si  Si16      1.0  0.78732  0.60597  0.84948  1.0000
  Si  Si17      1.0  1.00000  0.50000  0.25000  1.0000
  Si  Si18      1.0  0.50000  1.00000  0.25000  1.0000
  Si  Si19      1.0  0.00000  0.50000  0.75000  1.0000
  Si  Si20      1.0  0.50000  0.00000  0.75000  1.0000
